*Heading
** Job name: CurvedTest4 Model name: CurvedTest4
** Generated by: Abaqus/CAE 2021
*Preprint, echo=NO, model=NO, history=NO, contact=NO
**
** PARTS
**
*Part, name=CurvedTest
*Node
      1, -0.290688843, -0.0186223257,          0.5
      2, -0.281515867, -0.0141256005,          0.5
      3, -0.272273362, -0.00977359433,          0.5
      4, -0.262963623, -0.00556738302,          0.5
      5, -0.253588915, -0.00150800578,          0.5
      6, -0.244151548, 0.00240353541,          0.5
      7,  -0.23465389, 0.00616627373,          0.5
      8, -0.225098267, 0.00977928005,          0.5
      9, -0.215487033, 0.0132416617,          0.5
     10, -0.205822587, 0.0165525638,          0.5
     11, -0.196107283, 0.0197111685,          0.5
     12, -0.186343551, 0.0227166954,          0.5
     13, -0.176533774, 0.0255684014,          0.5
     14, -0.166680411, 0.0282655824,          0.5
     15, -0.156785861, 0.0308075733,          0.5
     16, -0.146852583, 0.0331937447,          0.5
     17, -0.136883035, 0.0354235098,          0.5
     18, -0.126879677, 0.0374963135,          0.5
     19, -0.116844967, 0.0394116454,          0.5
     20, -0.106781401, 0.0411690362,          0.5
** ... 15280 like lines cut
*Element, type=C3D8R
    1,  3061,  3062,  3122,  3121,     1,     2,    62,    61
    2,  3062,  3063,  3123,  3122,     2,     3,    63,    62
    3,  3063,  3064,  3124,  3123,     3,     4,    64,    63
    4,  3064,  3065,  3125,  3124,     4,     5,    65,    64
    5,  3065,  3066,  3126,  3125,     5,     6,    66,    65
    6,  3066,  3067,  3127,  3126,     6,     7,    67,    66
    7,  3067,  3068,  3128,  3127,     7,     8,    68,    67
    8,  3068,  3069,  3129,  3128,     8,     9,    69,    68
    9,  3069,  3070,  3130,  3129,     9,    10,    70,    69
   10,  3070,  3071,  3131,  3130,    10,    11,    71,    70
   11,  3071,  3072,  3132,  3131,    11,    12,    72,    71
   12,  3072,  3073,  3133,  3132,    12,    13,    73,    72
   13,  3073,  3074,  3134,  3133,    13,    14,    74,    73
   14,  3074,  3075,  3135,  3134,    14,    15,    75,    74
   15,  3075,  3076,  3136,  3135,    15,    16,    76,    75
   16,  3076,  3077,  3137,  3136,    16,    17,    77,    76
   17,  3077,  3078,  3138,  3137,    17,    18,    78,    77
   18,  3078,  3079,  3139,  3138,    18,    19,    79,    78
   19,  3079,  3080,  3140,  3139,    19,    20,    80,    79
   20,  3080,  3081,  3141,  3140,    20,    21,    81,    80
** ... 11780 like lines cut
*Nset, nset=Set-1, generate
     1,  15300,      1
*Elset, elset=Set-1, generate
     1,  11800,      1
** Section: Matrix
*Solid Section, elset=Set-1, material=Matrix-NeoHooke
,
*End Part
**  
**
** ASSEMBLY
**
*Assembly, name=Assembly
**  
*Instance, name=CurvedTest-1, part=CurvedTest
          0.,           0.,           0.
          0.,           0.,           0.,           1.,           0.,           0.,          90.
*End Instance
**  
*Nset, nset=Host, instance=CurvedTest-1, generate
     1,  15300,      1
*Elset, elset=Host, instance=CurvedTest-1, generate
     1,  11800,      1
*Nset, nset=Outside, instance=CurvedTest-1
     1,     2,     3,     4,     5,     6,     7,     8,     9,    10,    11,    12,    13,    14,    15,    16
    17,    18,    19,    20,    21,    22,    23,    24,    25,    26,    27,    28,    29,    30,    31,    32
    33,    34,    35,    36,    37,    38,    39,    40,    41,    42,    43,    44,    45,    46,    47,    48
    49,    50,    51,    52,    53,    54,    55,    56,    57,    58,    59,    60,    61,    62,    63,    64
    65,    66,    67,    68,    69,    70,    71,    72,    73,    74,    75,    76,    77,    78,    79,    80
    81,    82,    83,    84,    85,    86,    87,    88,    89,    90,    91,    92,    93,    94,    95,    96
    97,    98,    99,   100,   101,   102,   103,   104,   105,   106,   107,   108,   109,   110,   111,   112
   113,   114,   115,   116,   117,   118,   119,   120,   121,   122,   123,   124,   125,   126,   127,   128
   129,   130,   131,   132,   133,   134,   135,   136,   137,   138,   139,   140,   141,   142,   143,   144
   145,   146,   147,   148,   149,   150,   151,   152,   153,   154,   155,   156,   157,   158,   159,   160
   161,   162,   163,   164,   165,   166,   167,   168,   169,   170,   171,   172,   173,   174,   175,   176
   177,   178,   179,   180,   181,   182,   183,   184,   185,   186,   187,   188,   189,   190,   191,   192
   193,   194,   195,   196,   197,   198,   199,   200,   201,   202,   203,   204,   205,   206,   207,   208
   209,   210,   211,   212,   213,   214,   215,   216,   217,   218,   219,   220,   221,   222,   223,   224
   225,   226,   227,   228,   229,   230,   231,   232,   233,   234,   235,   236,   237,   238,   239,   240
   241,   242,   243,   244,   245,   246,   247,   248,   249,   250,   251,   252,   253,   254,   255,   256
   257,   258,   259,   260,   261,   262,   263,   264,   265,   266,   267,   268,   269,   270,   271,   272
   273,   274,   275,   276,   277,   278,   279,   280,   281,   282,   283,   284,   285,   286,   287,   288
   289,   290,   291,   292,   293,   294,   295,   296,   297,   298,   299,   300,   301,   302,   303,   304
   305,   306,   307,   308,   309,   310,   311,   312,   313,   314,   315,   316,   317,   318,   319,   320
** ... 404 like lines cut
*Elset, elset=Outside, instance=CurvedTest-1
     1,     2,     3,     4,     5,     6,     7,     8,     9,    10,    11,    12,    13,    14,    15,    16
    17,    18,    19,    20,    21,    22,    23,    24,    25,    26,    27,    28,    29,    30,    31,    32
    33,    34,    35,    36,    37,    38,    39,    40,    41,    42,    43,    44,    45,    46,    47,    48
    49,    50,    51,    52,    53,    54,    55,    56,    57,    58,    59,    60,    61,    62,    63,    64
    65,    66,    67,    68,    69,    70,    71,    72,    73,    74,    75,    76,    77,    78,    79,    80
    81,    82,    83,    84,    85,    86,    87,    88,    89,    90,    91,    92,    93,    94,    95,    96
    97,    98,    99,   100,   101,   102,   103,   104,   105,   106,   107,   108,   109,   110,   111,   112
   113,   114,   115,   116,   117,   118,   119,   120,   121,   122,   123,   124,   125,   126,   127,   128
   129,   130,   131,   132,   133,   134,   135,   136,   137,   138,   139,   140,   141,   142,   143,   144
   145,   146,   147,   148,   149,   150,   151,   152,   153,   154,   155,   156,   157,   158,   159,   160
   161,   162,   163,   164,   165,   166,   167,   168,   169,   170,   171,   172,   173,   174,   175,   176
   177,   178,   179,   180,   181,   182,   183,   184,   185,   186,   187,   188,   189,   190,   191,   192
   193,   194,   195,   196,   197,   198,   199,   200,   201,   202,   203,   204,   205,   206,   207,   208
   209,   210,   211,   212,   213,   214,   215,   216,   217,   218,   219,   220,   221,   222,   223,   224
   225,   226,   227,   228,   229,   230,   231,   232,   233,   234,   235,   236,   237,   238,   239,   240
   241,   242,   243,   244,   245,   246,   247,   248,   249,   250,   251,   252,   253,   254,   255,   256
   257,   258,   259,   260,   261,   262,   263,   264,   265,   266,   267,   268,   269,   270,   271,   272
   273,   274,   275,   276,   277,   278,   279,   280,   281,   282,   283,   284,   285,   286,   287,   288
   289,   290,   291,   292,   293,   294,   295,   296,   297,   298,   299,   300,   301,   302,   303,   304
   305,   306,   307,   308,   309,   310,   311,   312,   313,   314,   315,   316,   317,   318,   319,   320
** ... 376 like lines cut
*Nset, nset=SimpleSupport, instance=CurvedTest-1
 12241, 12300, 12301, 12360, 12361, 12420, 12421, 12480, 12481, 12540, 12541, 12600, 12601, 12660, 12661, 12720
 12721, 12780, 12781, 12840, 12841, 12900, 12901, 12960, 12961, 13020, 13021, 13080, 13081, 13140, 13141, 13200
 13201, 13260, 13261, 13320, 13321, 13380, 13381, 13440, 13441, 13500, 13501, 13560, 13561, 13620, 13621, 13680
 13681, 13740, 13741, 13800, 13801, 13860, 13861, 13920, 13921, 13980, 13981, 14040, 14041, 14100, 14101, 14160
 14161, 14220, 14221, 14280, 14281, 14340, 14341, 14400, 14401, 14460, 14461, 14520, 14521, 14580, 14581, 14640
 14641, 14700, 14701, 14760, 14761, 14820, 14821, 14880, 14881, 14940, 14941, 15000, 15001, 15060, 15061, 15120
 15121, 15180, 15181, 15240, 15241, 15300
*Elset, elset=SimpleSupport, instance=CurvedTest-1
  8851,  8909,  8910,  8968,  8969,  9027,  9028,  9086,  9087,  9145,  9146,  9204,  9205,  9263,  9264,  9322
  9323,  9381,  9382,  9440,  9441,  9499,  9500,  9558,  9559,  9617,  9618,  9676,  9677,  9735,  9736,  9794
  9795,  9853,  9854,  9912,  9913,  9971,  9972, 10030, 10031, 10089, 10090, 10148, 10149, 10207, 10208, 10266
 10267, 10325, 10326, 10384, 10385, 10443, 10444, 10502, 10503, 10561, 10562, 10620, 10621, 10679, 10680, 10738
 10739, 10797, 10798, 10856, 10857, 10915, 10916, 10974, 10975, 11033, 11034, 11092, 11093, 11151, 11152, 11210
 11211, 11269, 11270, 11328, 11329, 11387, 11388, 11446, 11447, 11505, 11506, 11564, 11565, 11623, 11624, 11682
 11683, 11741, 11742, 11800
*End Assembly
*Amplitude, name=Amp-1
             0.,              0.,           0.001,              1.
** 
** MATERIALS
** 
*Material, name=FIBERS
*Density
981.,
*Elastic
 1.3e+11, 0.49
*Material, name=Matrix-NeoHooke
*Density
1100.,
*Hyperelastic, neo hooke
 2.1154e+08, 2.182e-09
** 
** BOUNDARY CONDITIONS
** 
** Name: SimpleSupport Type: Displacement/Rotation
*Boundary
SimpleSupport, 3, 3
** ----------------------------------------------------------------
** 
** STEP: Step-1
** 
*Step, name=Step-1, nlgeom=YES
*Dynamic, Explicit
, 0.001
*Bulk Viscosity
0.06, 1.2
** 
** OUTPUT REQUESTS
** 
*Restart, write, number interval=1, time marks=NO
** 
** FIELD OUTPUT: F-Output-1
** 
*Output, field, variable=PRESELECT
** 
** HISTORY OUTPUT: H-Output-1
** 
*Output, history, variable=PRESELECT
*End Step
