*Heading
** Job name: Dyneema-CohesiveH-Thin-m2 Model name: DiskQuarter-Cohesive-3layer
** Generated by: Abaqus/CAE 2021
*Preprint, echo=NO, model=NO, history=NO, contact=NO
**
** PARTS
**
*Part, name=SteelProjectile
*Node
      1, 0.00260637561, -0.00301579502, 0.00260637561
      2,           0., 0.00476250006,           0.
      3,           0., -0.00476250006,           0.
      4,           0., -0.00301579502, 0.00368597172
      5, 0.00368597172, -0.00301579502,           0.
      6,           0., 0.00424308376,           0.
      7,           0., 0.00373797258,           0.
      8,           0., 0.00323740346,           0.
      9,           0., 0.00273847999,           0.
     10,           0., 0.00224014977,           0.
     11,           0., 0.00174203201,           0.
     12,           0., 0.00124399003,           0.
     13,           0., 0.000745975005,           0.
     14,           0., 0.00024796935,           0.
     15,           0., -0.000250032113,           0.
     16,           0., -0.000748031714,           0.
     17,           0., -0.00124602823,           0.
     18,           0., -0.00174401852,           0.
     19,           0., -0.00224199868,           0.
     20,           0., -0.00273996824,           0.
** ... 2405 like lines cut
*Element, type=C3D8R
  1,  139,  121,  122,  140,  894,  876,  877,  895
  2,  121,  139,   48,   49,  876,  894,  447,  448
  3,  123,  141,  140,  122,  878,  896,  895,  877
  4,  220,  181,  142,  173,  975,  936,  897,  928
  5,  146,  126,  127,  147,  901,  881,  882,  902
  6,  192,  187,  181,  221,  947,  942,  936,  976
  7,  172,  145,   43,   44,  927,  900,  442,  443
  8,  144,  143,  124,  125,  899,  898,  879,  880
  9,  171,  188,  179,  148,  926,  943,  934,  903
 10,  171,  148,   41,   42,  926,  903,  440,  441
 11,  170,  150,   39,   40,  925,  905,  438,  439
 12,  128,  149,  147,  127,  883,  904,  902,  882
 13,  189,  202,  203,  182,  944,  957,  958,  937
 14,  168,  189,  182,  153,  923,  944,  937,  908
 15,  130,  152,  151,  129,  885,  907,  906,  884
 16,  167,  185,  184,  156,  922,  940,  939,  911
 17,  167,  156,   34,   35,  922,  911,  433,  434
 18,  177,  191,  211,  195,  932,  946,  966,  950
 19,  185,  205,  207,  184,  940,  960,  962,  939
 20,  135,  160,  159,  134,  890,  915,  914,  889
** ... 1876 like lines cut
*Element, type=C3D6
 949,   23,  258, 1013,    3,   24,  536
 950,   22,  259, 1014,   23,  258, 1013
 951,   21,  260, 1015,   22,  259, 1014
 952,   20,  261, 1016,   21,  260, 1015
 953,   19,  262, 1017,   20,  261, 1016
 954,   18,  263, 1018,   19,  262, 1017
 955,   17,  264, 1019,   18,  263, 1018
 956,   16,  265, 1020,   17,  264, 1019
 957,   15,  266, 1021,   16,  265, 1020
 958,   14,  267, 1022,   15,  266, 1021
 959,   13,  268, 1023,   14,  267, 1022
 960,   12,  269, 1024,   13,  268, 1023
 961,   11,  270, 1025,   12,  269, 1024
 962,   10,  271, 1026,   11,  270, 1025
 963,    9,  272, 1027,   10,  271, 1026
 964,    8,  273, 1028,    9,  272, 1027
 965,    7,  274, 1029,    8,  273, 1028
 966,    6,  275, 1030,    7,  274, 1029
 967,    2,   52,  451,    6,  275, 1030
 968,   23, 1013, 1168,    3,  536,  544
** ... 256 like lines cut
*Nset, nset=All, generate
    1,  2425,     1
*Elset, elset=All, generate
    1,  2172,     1
*Nset, nset=Set-4, generate
    1,  2425,     1
*Elset, elset=Set-4, generate
    1,  2172,     1
*Nset, nset=XSymm
   2,   3,   5,   6,   7,   8,   9,  10,  11,  12,  13,  14,  15,  16,  17,  18
  19,  20,  21,  22,  23,  92,  93,  94,  95,  96,  97,  98,  99, 100, 101, 102
 103, 104, 105, 106, 107, 108, 109, 110, 111, 112, 113, 114, 115, 116, 117, 118
 119, 120, 576, 577, 578, 579, 580, 581, 582, 583, 584, 585, 586, 587, 588, 589
 590, 591, 592, 593, 594, 595, 596, 597, 598, 599, 600, 601, 602, 603, 604, 605
 606, 607, 608, 609, 610, 611, 612, 613, 614, 615, 616, 617, 618, 619, 620, 621
 622, 623, 624, 625, 626, 627, 628, 629, 630, 631, 632, 633, 634, 635, 636, 637
 638, 639, 640, 641, 642, 643, 644, 645, 646, 647, 648, 649, 650, 651, 652, 653
 654, 655, 656, 657, 658, 659, 660, 661, 662, 663, 664, 665, 666, 667, 668, 669
 670, 671, 672, 673, 674, 675, 676, 677, 678, 679, 680, 681, 682, 683, 684, 685
 686, 687, 688, 689, 690, 691, 692, 693, 694, 695, 696, 697, 698, 699, 700, 701
 702, 703, 704, 705, 706, 707, 708, 709, 710, 711, 712, 713, 714, 715, 716, 717
 718, 719, 720, 721, 722, 723, 724, 725, 726, 727, 728, 729, 730
*Elset, elset=XSymm
 1877, 1878, 1879, 1880, 1881, 1882, 1883, 1884, 1885, 1886, 1887, 1888, 1889, 1890, 1891, 1892
 1893, 1894, 1895, 1896, 1897, 1898, 1899, 1900, 1901, 1902, 1903, 1904, 1905, 1906, 1907, 1908
 1909, 1910, 1911, 1912, 1913, 1914, 1915, 1916, 1917, 1918, 1919, 1920, 1921, 1922, 1923, 1924
 1925, 1926, 1927, 1928, 1929, 1930, 1931, 1932, 1933, 1934, 1935, 1936, 1937, 1938, 1939, 1940
 1941, 1942, 1943, 1944, 1945, 1946, 1947, 1948, 1949, 1950, 1951, 1952, 1953, 1954, 1955, 1956
 1957, 1958, 1959, 1960, 1961, 1962, 1963, 1964, 1965, 1966, 1967, 1968, 1969, 1970, 1971, 1972
 1973, 1974, 1975, 1976, 1977, 1978, 1979, 1980, 1981, 1982, 1983, 1984, 1985, 1986, 1987, 1988
 1989, 1990, 1991, 1992, 1993, 1994, 1995, 1996, 1997, 1998, 1999, 2000, 2001, 2002, 2003, 2004
 2005, 2006, 2007, 2008, 2009, 2010, 2011, 2012, 2013, 2014, 2015, 2016, 2017, 2018, 2019, 2020
 2021, 2022, 2023, 2024, 2025, 2026, 2027, 2028, 2029, 2030, 2031, 2032, 2033, 2034, 2130, 2131
 2132, 2133, 2134, 2135, 2136, 2137, 2138, 2139, 2140, 2141, 2142, 2143, 2144, 2145, 2146, 2147
 2148, 2169, 2170, 2171, 2172
*Nset, nset=YSymm
   2,   3,   4,   6,   7,   8,   9,  10,  11,  12,  13,  14,  15,  16,  17,  18
  19,  20,  21,  22,  23,  58,  59,  60,  61,  62,  63,  64,  65,  66,  67,  68
  69,  70,  71,  72,  73,  74,  75,  76,  77,  78,  79,  80,  81,  82,  83,  84
  85,  86, 276, 277, 278, 279, 280, 281, 282, 283, 284, 285, 286, 287, 288, 289
 290, 291, 292, 293, 294, 295, 296, 297, 298, 299, 300, 301, 302, 303, 304, 305
 306, 307, 308, 309, 310, 311, 312, 313, 314, 315, 316, 317, 318, 319, 320, 321
 322, 323, 324, 325, 326, 327, 328, 329, 330, 331, 332, 333, 334, 335, 336, 337
 338, 339, 340, 341, 342, 343, 344, 345, 346, 347, 348, 349, 350, 351, 352, 353
 354, 355, 356, 357, 358, 359, 360, 361, 362, 363, 364, 365, 366, 367, 368, 369
 370, 371, 372, 373, 374, 375, 376, 377, 378, 379, 380, 381, 382, 383, 384, 385
 386, 387, 388, 389, 390, 391, 392, 393, 394, 395, 396, 397, 398, 399, 400, 401
 402, 403, 404, 405, 406, 407, 408, 409, 410, 411, 412, 413, 414, 415, 416, 417
 418, 419, 420, 421, 422, 423, 424, 425, 426, 427, 428, 429, 430
*Elset, elset=YSymm
  791,  792,  793,  794,  795,  796,  797,  798,  799,  800,  801,  802,  803,  804,  805,  806
  807,  808,  809,  810,  811,  812,  813,  814,  815,  816,  817,  818,  819,  820,  821,  822
  823,  824,  825,  826,  827,  828,  829,  830,  831,  832,  833,  834,  835,  836,  837,  838
  839,  840,  841,  842,  843,  844,  845,  846,  847,  848,  849,  850,  851,  852,  853,  854
  855,  856,  857,  858,  859,  860,  861,  862,  863,  864,  865,  866,  867,  868,  869,  870
  871,  872,  873,  874,  875,  876,  877,  878,  879,  880,  881,  882,  883,  884,  885,  886
  887,  888,  889,  890,  891,  892,  893,  894,  895,  896,  897,  898,  899,  900,  901,  902
  903,  904,  905,  906,  907,  908,  909,  910,  911,  912,  913,  914,  915,  916,  917,  918
  919,  920,  921,  922,  923,  924,  925,  926,  927,  928,  929,  930,  931,  932,  933,  934
  935,  936,  937,  938,  939,  940,  941,  942,  943,  944,  945,  946,  947,  948, 1044, 1045
 1046, 1047, 1048, 1049, 1050, 1051, 1052, 1053, 1054, 1055, 1056, 1057, 1058, 1059, 1060, 1061
 1062, 1083, 1084, 1085, 1086
** Region: (Projectile:Set-4), (Controls:EC-2)
*Elset, elset=_I1, internal
    1,    2,    3,    4,    5,    6,    7,    8,    9,   10,   11,   12,   13,   14,   15,   16
   17,   18,   19,   20,   21,   22,   23,   24,   25,   26,   27,   28,   29,   30,   31,   32
   33,   34,   35,   36,   37,   38,   39,   40,   41,   42,   43,   44,   45,   46,   47,   48
   49,   50,   51,   52,   53,   54,   55,   56,   57,   58,   59,   60,   61,   62,   63,   64
   65,   66,   67,   68,   69,   70,   71,   72,   73,   74,   75,   76,   77,   78,   79,   80
   81,   82,   83,   84,   85,   86,   87,   88,   89,   90,   91,   92,   93,   94,   95,   96
   97,   98,   99,  100,  101,  102,  103,  104,  105,  106,  107,  108,  109,  110,  111,  112
  113,  114,  115,  116,  117,  118,  119,  120,  121,  122,  123,  124,  125,  126,  127,  128
  129,  130,  131,  132,  133,  134,  135,  136,  137,  138,  139,  140,  141,  142,  143,  144
  145,  146,  147,  148,  149,  150,  151,  152,  153,  154,  155,  156,  157,  158,  159,  160
  161,  162,  163,  164,  165,  166,  167,  168,  169,  170,  171,  172,  173,  174,  175,  176
  177,  178,  179,  180,  181,  182,  183,  184,  185,  186,  187,  188,  189,  190,  191,  192
  193,  194,  195,  196,  197,  198,  199,  200,  201,  202,  203,  204,  205,  206,  207,  208
  209,  210,  211,  212,  213,  214,  215,  216,  217,  218,  219,  220,  221,  222,  223,  224
  225,  226,  227,  228,  229,  230,  231,  232,  233,  234,  235,  236,  237,  238,  239,  240
  241,  242,  243,  244,  245,  246,  247,  248,  249,  250,  251,  252,  253,  254,  255,  256
  257,  258,  259,  260,  261,  262,  263,  264,  265,  266,  267,  268,  269,  270,  271,  272
  273,  274,  275,  276,  277,  278,  279,  280,  281,  282,  283,  284,  285,  286,  287,  288
  289,  290,  291,  292,  293,  294,  295,  296,  297,  298,  299,  300,  301,  302,  303,  304
  305,  306,  307,  308,  309,  310,  311,  312,  313,  314,  315,  316,  317,  318,  319,  320
** ... 99 like lines cut
** Section: Projectile
*Solid Section, elset=_I1, controls=EC-2, material=M50_ToolSteel
,
** Region: (Projectile:Set-4), (Controls:Default)
*Elset, elset=_I2, internal
  949,  950,  951,  952,  953,  954,  955,  956,  957,  958,  959,  960,  961,  962,  963,  964
  965,  966,  967,  968,  969,  970,  971,  972,  973,  974,  975,  976,  977,  978,  979,  980
  981,  982,  983,  984,  985,  986,  987,  988,  989,  990,  991,  992,  993,  994,  995,  996
  997,  998,  999, 1000, 1001, 1002, 1003, 1004, 1005, 1006, 1007, 1008, 1009, 1010, 1011, 1012
 1013, 1014, 1015, 1016, 1017, 1018, 1019, 1020, 1021, 1022, 1023, 1024, 1025, 1026, 1027, 1028
 1029, 1030, 1031, 1032, 1033, 1034, 1035, 1036, 1037, 1038, 1039, 1040, 1041, 1042, 1043, 1044
 1045, 1046, 1047, 1048, 1049, 1050, 1051, 1052, 1053, 1054, 1055, 1056, 1057, 1058, 1059, 1060
 1061, 1062, 1063, 1064, 1065, 1066, 1067, 1068, 1069, 1070, 1071, 1072, 1073, 1074, 1075, 1076
 1077, 1078, 1079, 1080, 1081, 1082, 1083, 1084, 1085, 1086, 2035, 2036, 2037, 2038, 2039, 2040
 2041, 2042, 2043, 2044, 2045, 2046, 2047, 2048, 2049, 2050, 2051, 2052, 2053, 2054, 2055, 2056
 2057, 2058, 2059, 2060, 2061, 2062, 2063, 2064, 2065, 2066, 2067, 2068, 2069, 2070, 2071, 2072
 2073, 2074, 2075, 2076, 2077, 2078, 2079, 2080, 2081, 2082, 2083, 2084, 2085, 2086, 2087, 2088
 2089, 2090, 2091, 2092, 2093, 2094, 2095, 2096, 2097, 2098, 2099, 2100, 2101, 2102, 2103, 2104
 2105, 2106, 2107, 2108, 2109, 2110, 2111, 2112, 2113, 2114, 2115, 2116, 2117, 2118, 2119, 2120
 2121, 2122, 2123, 2124, 2125, 2126, 2127, 2128, 2129, 2130, 2131, 2132, 2133, 2134, 2135, 2136
 2137, 2138, 2139, 2140, 2141, 2142, 2143, 2144, 2145, 2146, 2147, 2148, 2149, 2150, 2151, 2152
 2153, 2154, 2155, 2156, 2157, 2158, 2159, 2160, 2161, 2162, 2163, 2164, 2165, 2166, 2167, 2168
 2169, 2170, 2171, 2172
** Section: Projectile
*Solid Section, elset=_I2, material=M50_ToolSteel
,
*End Part
**  
*Part, name=TargetPlate
*Node
      1, -0.0888999999,           0.,           0.
      2,           0., 0.0888999999,           0.
      3,           0., 0.0250000004,           0.
      4, -0.0250000004,           0.,           0.
      5, -0.0723788291, 0.0516189449, 0.00170000002
      6,           0., 0.0888999999, 0.00170000002
      7,           0., 0.0250000004, 0.00170000002
      8, -0.0250000004,           0., 0.00170000002
      9, -0.0238605402, 0.00746154366, 0.00170000002
     10, -0.0888999999,           0., 0.00170000002
     11,           0.,           0.,           0.
     12,           0.,           0., 0.00170000002
     13, -0.101599999,           0.,           0.
     14,           0.,  0.101599999,           0.
     15, -0.101599999,           0., 0.00170000002
     16,           0.,  0.101599999, 0.00170000002
     17, -0.0887096599, 0.0058143381,           0.
     18, -0.0881394446, 0.0116037782,           0.
     19, -0.0871918127, 0.0173435304,           0.
     20, -0.0858708024, 0.0230090134,           0.
** ... 2737 like lines cut
*Element, type=C3D8R
   1,  192, 1324, 1993, 1282,    1,   17,  316,  104
   2, 1324, 1325, 1994, 1993,   17,   18,  317,  316
   3, 1325, 1326, 1995, 1994,   18,   19,  318,  317
   4, 1326, 1327, 1996, 1995,   19,   20,  319,  318
   5, 1327, 1328, 1997, 1996,   20,   21,  320,  319
   6, 1328, 1329, 1998, 1997,   21,   22,  321,  320
   7, 1329, 1330, 1999, 1998,   22,   23,  322,  321
   8, 1330, 1331, 2000, 1999,   23,   24,  323,  322
   9, 1331, 1332, 2001, 2000,   24,   25,  324,  323
  10, 1332, 1333, 2002, 2001,   25,   26,  325,  324
  11, 1333, 1334, 2003, 2002,   26,   27,  326,  325
  12, 1334, 1335, 2004, 2003,   27,   28,  327,  326
  13, 1335, 1336, 2005, 2004,   28,   29,  328,  327
  14, 1336, 1337, 2006, 2005,   29,   30,  329,  328
  15, 1337, 1338, 2007, 2006,   30,   31,  330,  329
  16, 1338, 1339, 2008, 2007,   31,   32,  331,  330
  17, 1339, 1340, 2009, 2008,   32,   33,  332,  331
  18, 1340, 1341, 2010, 2009,   33,   34,  333,  332
  19, 1341, 1342, 2011, 2010,   34,   35,  334,  333
  20, 1342, 1343, 2012, 2011,   35,   36,  335,  334
** ... 1708 like lines cut
*Nset, nset=_PickedSet103, internal, generate
    1,  2757,     1
*Elset, elset=_PickedSet103, internal, generate
    1,  1728,     1
*Nset, nset=XSymm
    2,    3,    6,    7,   11,   12,   14,   16,   40,   41,   42,   43,   44,   45,   46,   47
   48,   49,   50,   51,   52,   53,   54,   55,   56,   57,   58,   59,   60,  127,  128,  129
  130,  131,  132,  133,  134,  135,  136,  137,  138,  139,  140,  141,  142,  143,  144,  145
  146,  147,  193,  194,  211,  212,  213,  214,  215,  216,  217,  218,  219,  220,  221,  222
  223,  224,  225,  226,  227,  228,  229,  230,  231,  232,  233,  234,  235,  236,  237,  238
  239,  240,  241,  242,  243,  285,  286,  312,  313,  314, 1303, 1304, 1305, 1306, 1307, 1308
 1309, 1310, 1311, 1312, 1313, 1314, 1315, 1316, 1317, 1318, 1319, 1320, 1321, 1322, 1323, 1622
 1623, 1624, 1625, 1626, 1627, 1628, 1629, 1630, 1631, 1632, 1633, 1634, 1635, 1636, 1637, 1966
 1967,
*Elset, elset=XSymm
   24,   48,   72,   96,  120,  144,  168,  192,  216,  240,  264,  288,  312,  336,  360,  384
  408,  432,  456,  480,  504,  528,  552,  576,  600,  624,  648,  672,  696,  720,  744,  768
  792,  816,  840,  864,  888,  912,  936,  960,  984, 1008, 1032, 1056, 1128, 1140, 1152, 1164
 1176, 1177, 1178, 1179, 1180, 1181, 1182, 1183, 1184, 1185, 1186, 1187, 1188, 1332, 1344, 1356
 1368, 1380, 1441, 1442, 1443, 1444, 1445, 1446, 1447, 1448, 1449, 1450, 1451, 1452, 1585, 1609
 1633, 1657, 1681, 1705
*Nset, nset=YSymm
    1,    4,    8,   10,   11,   12,   13,   15,   84,   85,   86,   87,   88,   89,   90,   91
   92,   93,   94,   95,   96,   97,   98,   99,  100,  101,  102,  103,  104,  170,  171,  172
  173,  174,  175,  176,  177,  178,  179,  180,  181,  182,  183,  184,  185,  186,  187,  188
  189,  190,  191,  192,  195,  196,  197,  198,  199,  200,  201,  202,  203,  204,  205,  206
  207,  208,  209,  210,  227,  244,  245,  246,  247,  248,  249,  250,  251,  252,  253,  254
  255,  256,  257,  258,  259,  260,  261,  287,  288,  315, 1282, 1283, 1284, 1285, 1286, 1287
 1288, 1289, 1290, 1291, 1292, 1293, 1294, 1295, 1296, 1297, 1298, 1299, 1300, 1301, 1302, 1606
 1607, 1608, 1609, 1610, 1611, 1612, 1613, 1614, 1615, 1616, 1617, 1618, 1619, 1620, 1621, 1968
 1969,
*Elset, elset=YSymm
    1,   25,   49,   73,   97,  121,  145,  169,  193,  217,  241,  265,  289,  313,  337,  361
  385,  409,  433,  457,  481,  505,  529,  553,  577,  601,  625,  649,  673,  697,  721,  745
  769,  793,  817,  841,  865,  889,  913,  937,  961,  985, 1009, 1033, 1057, 1058, 1059, 1060
 1061, 1188, 1200, 1212, 1224, 1236, 1248, 1260, 1272, 1284, 1296, 1308, 1320, 1381, 1393, 1405
 1417, 1429, 1452, 1464, 1476, 1488, 1500, 1512, 1524, 1536, 1548, 1560, 1572, 1584, 1608, 1632
 1656, 1680, 1704, 1728
*Elset, elset=_FrontFace_S1, internal
  529,  530,  531,  532,  533,  534,  535,  536,  537,  538,  539,  540,  541,  542,  543,  544
  545,  546,  547,  548,  549,  550,  551,  552,  553,  554,  555,  556,  557,  558,  559,  560
  561,  562,  563,  564,  565,  566,  567,  568,  569,  570,  571,  572,  573,  574,  575,  576
  577,  578,  579,  580,  581,  582,  583,  584,  585,  586,  587,  588,  589,  590,  591,  592
  593,  594,  595,  596,  597,  598,  599,  600,  601,  602,  603,  604,  605,  606,  607,  608
  609,  610,  611,  612,  613,  614,  615,  616,  617,  618,  619,  620,  621,  622,  623,  624
  625,  626,  627,  628,  629,  630,  631,  632,  633,  634,  635,  636,  637,  638,  639,  640
  641,  642,  643,  644,  645,  646,  647,  648,  649,  650,  651,  652,  653,  654,  655,  656
  657,  658,  659,  660,  661,  662,  663,  664,  665,  666,  667,  668,  669,  670,  671,  672
  673,  674,  675,  676,  677,  678,  679,  680,  681,  682,  683,  684,  685,  686,  687,  688
  689,  690,  691,  692,  693,  694,  695,  696,  697,  698,  699,  700,  701,  702,  703,  704
  705,  706,  707,  708,  709,  710,  711,  712,  713,  714,  715,  716,  717,  718,  719,  720
  721,  722,  723,  724,  725,  726,  727,  728,  729,  730,  731,  732,  733,  734,  735,  736
  737,  738,  739,  740,  741,  742,  743,  744,  745,  746,  747,  748,  749,  750,  751,  752
  753,  754,  755,  756,  757,  758,  759,  760,  761,  762,  763,  764,  765,  766,  767,  768
  769,  770,  771,  772,  773,  774,  775,  776,  777,  778,  779,  780,  781,  782,  783,  784
  785,  786,  787,  788,  789,  790,  791,  792,  793,  794,  795,  796,  797,  798,  799,  800
  801,  802,  803,  804,  805,  806,  807,  808,  809,  810,  811,  812,  813,  814,  815,  816
  817,  818,  819,  820,  821,  822,  823,  824,  825,  826,  827,  828,  829,  830,  831,  832
  833,  834,  835,  836,  837,  838,  839,  840,  841,  842,  843,  844,  845,  846,  847,  848
** ... 18 like lines cut
*Elset, elset=_FrontFace_S3, internal
 1321, 1322, 1323, 1324, 1325, 1326, 1327, 1328, 1329, 1330, 1331, 1332, 1333, 1334, 1335, 1336
 1337, 1338, 1339, 1340, 1341, 1342, 1343, 1344, 1345, 1346, 1347, 1348, 1349, 1350, 1351, 1352
 1353, 1354, 1355, 1356, 1357, 1358, 1359, 1360, 1361, 1362, 1363, 1364, 1365, 1366, 1367, 1368
 1369, 1370, 1371, 1372, 1373, 1374, 1375, 1376, 1377, 1378, 1379, 1380, 1441, 1442, 1443, 1444
 1445, 1446, 1447, 1448, 1449, 1450, 1451, 1452, 1453, 1454, 1455, 1456, 1457, 1458, 1459, 1460
 1461, 1462, 1463, 1464, 1465, 1466, 1467, 1468, 1469, 1470, 1471, 1472, 1473, 1474, 1475, 1476
 1477, 1478, 1479, 1480, 1481, 1482, 1483, 1484, 1485, 1486, 1487, 1488, 1489, 1490, 1491, 1492
 1493, 1494, 1495, 1496, 1497, 1498, 1499, 1500, 1501, 1502, 1503, 1504, 1505, 1506, 1507, 1508
 1509, 1510, 1511, 1512, 1513, 1514, 1515, 1516, 1517, 1518, 1519, 1520, 1521, 1522, 1523, 1524
 1525, 1526, 1527, 1528, 1529, 1530, 1531, 1532, 1533, 1534, 1535, 1536, 1537, 1538, 1539, 1540
 1541, 1542, 1543, 1544, 1545, 1546, 1547, 1548, 1549, 1550, 1551, 1552, 1553, 1554, 1555, 1556
 1557, 1558, 1559, 1560, 1561, 1562, 1563, 1564, 1565, 1566, 1567, 1568, 1569, 1570, 1571, 1572
 1573, 1574, 1575, 1576, 1577, 1578, 1579, 1580, 1581, 1582, 1583, 1584
*Elset, elset=_FrontFace_S4, internal, generate
 1381,  1440,     1
*Surface, type=ELEMENT, name=FrontFace
_FrontFace_S1, S1
_FrontFace_S3, S3
_FrontFace_S4, S4
*Elset, elset=_BackFace_S2, internal
    1,    2,    3,    4,    5,    6,    7,    8,    9,   10,   11,   12,   13,   14,   15,   16
   17,   18,   19,   20,   21,   22,   23,   24,   25,   26,   27,   28,   29,   30,   31,   32
   33,   34,   35,   36,   37,   38,   39,   40,   41,   42,   43,   44,   45,   46,   47,   48
   49,   50,   51,   52,   53,   54,   55,   56,   57,   58,   59,   60,   61,   62,   63,   64
   65,   66,   67,   68,   69,   70,   71,   72,   73,   74,   75,   76,   77,   78,   79,   80
   81,   82,   83,   84,   85,   86,   87,   88,   89,   90,   91,   92,   93,   94,   95,   96
   97,   98,   99,  100,  101,  102,  103,  104,  105,  106,  107,  108,  109,  110,  111,  112
  113,  114,  115,  116,  117,  118,  119,  120,  121,  122,  123,  124,  125,  126,  127,  128
  129,  130,  131,  132,  133,  134,  135,  136,  137,  138,  139,  140,  141,  142,  143,  144
  145,  146,  147,  148,  149,  150,  151,  152,  153,  154,  155,  156,  157,  158,  159,  160
  161,  162,  163,  164,  165,  166,  167,  168,  169,  170,  171,  172,  173,  174,  175,  176
  177,  178,  179,  180,  181,  182,  183,  184,  185,  186,  187,  188,  189,  190,  191,  192
  193,  194,  195,  196,  197,  198,  199,  200,  201,  202,  203,  204,  205,  206,  207,  208
  209,  210,  211,  212,  213,  214,  215,  216,  217,  218,  219,  220,  221,  222,  223,  224
  225,  226,  227,  228,  229,  230,  231,  232,  233,  234,  235,  236,  237,  238,  239,  240
  241,  242,  243,  244,  245,  246,  247,  248,  249,  250,  251,  252,  253,  254,  255,  256
  257,  258,  259,  260,  261,  262,  263,  264,  265,  266,  267,  268,  269,  270,  271,  272
  273,  274,  275,  276,  277,  278,  279,  280,  281,  282,  283,  284,  285,  286,  287,  288
  289,  290,  291,  292,  293,  294,  295,  296,  297,  298,  299,  300,  301,  302,  303,  304
  305,  306,  307,  308,  309,  310,  311,  312,  313,  314,  315,  316,  317,  318,  319,  320
** ... 34 like lines cut
*Surface, type=ELEMENT, name=BackFace
_BackFace_S2, S2
*Orientation, name=Ori-1
1., 0., 0., 0., 1., 0.
1, 0.
** Section: Matrix
*Solid Section, elset=_PickedSet103, orientation=Ori-1, controls=EC-1, material=DyneemaMatrix_Utomo
,
*End Part
**  
**
** ASSEMBLY
**
*Assembly, name=Assembly
**  
*Instance, name=TargetPlate-1, part=TargetPlate
*End Instance
**  
*Instance, name=SteelProjectile-1, part=SteelProjectile
          0.,           0.,     0.009963
          0.,           0.,     0.009963, -0.577350279552042, -0.577350279552042, 0.587313279552042, 119.999999109416
*End Instance
**  
*Instance, name=TargetPlate-2, part=TargetPlate
          0.,           0.,       0.0017
*End Instance
**  
*Instance, name=TargetPlate-3, part=TargetPlate
          0.,           0.,       0.0034
*End Instance
**  
*Nset, nset=AllOutside, instance=TargetPlate-1
    1,    2,    3,    4,    6,    7,    8,   10,   11,   12,   13,   14,   15,   16,   17,   18
   19,   20,   21,   22,   23,   24,   25,   26,   27,   28,   29,   30,   31,   32,   33,   34
   35,   36,   37,   38,   39,   40,   41,   42,   43,   44,   45,   46,   47,   48,   49,   50
   51,   52,   53,   54,   55,   56,   57,   58,   59,   60,   61,   62,   63,   64,   65,   66
   67,   68,   69,   70,   71,   72,   73,   74,   75,   76,   77,   78,   79,   80,   81,   82
   83,   84,   85,   86,   87,   88,   89,   90,   91,   92,   93,   94,   95,   96,   97,   98
   99,  100,  101,  102,  103,  104,  127,  128,  129,  130,  131,  132,  133,  134,  135,  136
  137,  138,  139,  140,  141,  142,  143,  144,  145,  146,  147,  170,  171,  172,  173,  174
  175,  176,  177,  178,  179,  180,  181,  182,  183,  184,  185,  186,  187,  188,  189,  190
  191,  192,  193,  194,  195,  196,  197,  198,  199,  200,  201,  202,  203,  204,  205,  206
  207,  208,  209,  210,  211,  212,  213,  214,  215,  216,  217,  218,  219,  220,  221,  222
  223,  224,  225,  226,  227,  228,  229,  230,  231,  232,  233,  234,  235,  236,  237,  238
  239,  240,  241,  242,  243,  244,  245,  246,  247,  248,  249,  250,  251,  252,  253,  254
  255,  256,  257,  258,  259,  260,  261,  262,  263,  264,  265,  266,  267,  268,  269,  270
  271,  272,  273,  274,  275,  276,  277,  278,  279,  280,  281,  282,  283,  284,  285,  286
  287,  288,  289,  290,  291,  292,  293,  294,  295,  296,  297,  298,  299,  300,  301,  302
  303,  304,  305,  306,  307,  308,  309,  310,  311,  312,  313,  314,  315,  316,  317,  318
  319,  320,  321,  322,  323,  324,  325,  326,  327,  328,  329,  330,  331,  332,  333,  334
  335,  336,  337,  338,  339,  340,  341,  342,  343,  344,  345,  346,  347,  348,  349,  350
  351,  352,  353,  354,  355,  356,  357,  358,  359,  360,  361,  362,  363,  364,  365,  366
** ... 51 like lines cut
*Nset, nset=AllOutside, instance=TargetPlate-2
    1,    2,    3,    4,    6,    7,    8,   10,   11,   12,   13,   14,   15,   16,   40,   41
   42,   43,   44,   45,   46,   47,   48,   49,   50,   51,   52,   53,   54,   55,   56,   57
   58,   59,   60,   84,   85,   86,   87,   88,   89,   90,   91,   92,   93,   94,   95,   96
   97,   98,   99,  100,  101,  102,  103,  104,  127,  128,  129,  130,  131,  132,  133,  134
  135,  136,  137,  138,  139,  140,  141,  142,  143,  144,  145,  146,  147,  170,  171,  172
  173,  174,  175,  176,  177,  178,  179,  180,  181,  182,  183,  184,  185,  186,  187,  188
  189,  190,  191,  192,  193,  194,  195,  196,  197,  198,  199,  200,  201,  202,  203,  204
  205,  206,  207,  208,  209,  210,  211,  212,  213,  214,  215,  216,  217,  218,  219,  220
  221,  222,  223,  224,  225,  226,  227,  228,  229,  230,  231,  232,  233,  234,  235,  236
  237,  238,  239,  240,  241,  242,  243,  244,  245,  246,  247,  248,  249,  250,  251,  252
  253,  254,  255,  256,  257,  258,  259,  260,  261,  262,  263,  264,  265,  266,  267,  268
  269,  270,  271,  272,  273,  274,  275,  276,  277,  278,  279,  280,  281,  282,  283,  284
  285,  286,  287,  288,  289,  290,  291,  292,  293,  294,  295,  296,  297,  298,  299,  300
  301,  302,  303,  304,  305,  306,  307,  308,  309,  310,  311,  312,  313,  314,  315, 1282
 1283, 1284, 1285, 1286, 1287, 1288, 1289, 1290, 1291, 1292, 1293, 1294, 1295, 1296, 1297, 1298
 1299, 1300, 1301, 1302, 1303, 1304, 1305, 1306, 1307, 1308, 1309, 1310, 1311, 1312, 1313, 1314
 1315, 1316, 1317, 1318, 1319, 1320, 1321, 1322, 1323, 1606, 1607, 1608, 1609, 1610, 1611, 1612
 1613, 1614, 1615, 1616, 1617, 1618, 1619, 1620, 1621, 1622, 1623, 1624, 1625, 1626, 1627, 1628
 1629, 1630, 1631, 1632, 1633, 1634, 1635, 1636, 1637, 1966, 1967, 1968, 1969, 1970, 1971, 1972
 1973, 1974, 1975, 1976, 1977, 1978, 1979, 1980, 1981, 1982, 1983, 1984, 1985, 1986, 1987, 1988
 1989, 1990, 1991, 1992
*Nset, nset=AllOutside, instance=TargetPlate-3
    1,    2,    3,    4,    5,    6,    7,    8,    9,   10,   11,   12,   13,   14,   15,   16
   40,   41,   42,   43,   44,   45,   46,   47,   48,   49,   50,   51,   52,   53,   54,   55
   56,   57,   58,   59,   60,   84,   85,   86,   87,   88,   89,   90,   91,   92,   93,   94
   95,   96,   97,   98,   99,  100,  101,  102,  103,  104,  105,  106,  107,  108,  109,  110
  111,  112,  113,  114,  115,  116,  117,  118,  119,  120,  121,  122,  123,  124,  125,  126
  127,  128,  129,  130,  131,  132,  133,  134,  135,  136,  137,  138,  139,  140,  141,  142
  143,  144,  145,  146,  147,  148,  149,  150,  151,  152,  153,  154,  155,  156,  157,  158
  159,  160,  161,  162,  163,  164,  165,  166,  167,  168,  169,  170,  171,  172,  173,  174
  175,  176,  177,  178,  179,  180,  181,  182,  183,  184,  185,  186,  187,  188,  189,  190
  191,  192,  193,  194,  195,  196,  197,  198,  199,  200,  201,  202,  203,  204,  205,  206
  207,  208,  209,  210,  211,  212,  213,  214,  215,  216,  217,  218,  219,  220,  221,  222
  223,  224,  225,  226,  227,  228,  229,  230,  231,  232,  233,  234,  235,  236,  237,  238
  239,  240,  241,  242,  243,  244,  245,  246,  247,  248,  249,  250,  251,  252,  253,  254
  255,  256,  257,  258,  259,  260,  261,  262,  263,  264,  265,  266,  267,  268,  269,  270
  271,  272,  273,  274,  275,  276,  277,  278,  279,  280,  281,  282,  283,  284,  285,  286
  287,  288,  289,  290,  291,  292,  293,  294,  295,  296,  297,  298,  299,  300,  301,  302
  303,  304,  305,  306,  307,  308,  309,  310,  311,  312,  313,  314,  315,  799,  800,  801
  802,  803,  804,  805,  806,  807,  808,  809,  810,  811,  812,  813,  814,  815,  816,  817
  818,  819,  820,  821,  822,  823,  824,  825,  826,  827,  828,  829,  830,  831,  832,  833
  834,  835,  836,  837,  838,  839,  840,  841,  842,  843,  844,  845,  846,  847,  848,  849
** ... 51 like lines cut
*Elset, elset=AllOutside, instance=TargetPlate-1
    1,    2,    3,    4,    5,    6,    7,    8,    9,   10,   11,   12,   13,   14,   15,   16
   17,   18,   19,   20,   21,   22,   23,   24,   25,   26,   27,   28,   29,   30,   31,   32
   33,   34,   35,   36,   37,   38,   39,   40,   41,   42,   43,   44,   45,   46,   47,   48
   49,   50,   51,   52,   53,   54,   55,   56,   57,   58,   59,   60,   61,   62,   63,   64
   65,   66,   67,   68,   69,   70,   71,   72,   73,   74,   75,   76,   77,   78,   79,   80
   81,   82,   83,   84,   85,   86,   87,   88,   89,   90,   91,   92,   93,   94,   95,   96
   97,   98,   99,  100,  101,  102,  103,  104,  105,  106,  107,  108,  109,  110,  111,  112
  113,  114,  115,  116,  117,  118,  119,  120,  121,  122,  123,  124,  125,  126,  127,  128
  129,  130,  131,  132,  133,  134,  135,  136,  137,  138,  139,  140,  141,  142,  143,  144
  145,  146,  147,  148,  149,  150,  151,  152,  153,  154,  155,  156,  157,  158,  159,  160
  161,  162,  163,  164,  165,  166,  167,  168,  169,  170,  171,  172,  173,  174,  175,  176
  177,  178,  179,  180,  181,  182,  183,  184,  185,  186,  187,  188,  189,  190,  191,  192
  193,  194,  195,  196,  197,  198,  199,  200,  201,  202,  203,  204,  205,  206,  207,  208
  209,  210,  211,  212,  213,  214,  215,  216,  217,  218,  219,  220,  221,  222,  223,  224
  225,  226,  227,  228,  229,  230,  231,  232,  233,  234,  235,  236,  237,  238,  239,  240
  241,  242,  243,  244,  245,  246,  247,  248,  249,  250,  251,  252,  253,  254,  255,  256
  257,  258,  259,  260,  261,  262,  263,  264,  265,  266,  267,  268,  269,  270,  271,  272
  273,  274,  275,  276,  277,  278,  279,  280,  281,  282,  283,  284,  285,  286,  287,  288
  289,  290,  291,  292,  293,  294,  295,  296,  297,  298,  299,  300,  301,  302,  303,  304
  305,  306,  307,  308,  309,  310,  311,  312,  313,  314,  315,  316,  317,  318,  319,  320
** ... 41 like lines cut
*Elset, elset=AllOutside, instance=TargetPlate-2
    1,   24,   25,   48,   49,   72,   73,   96,   97,  120,  121,  144,  145,  168,  169,  192
  193,  216,  217,  240,  241,  264,  265,  288,  289,  312,  313,  336,  337,  360,  361,  384
  385,  408,  409,  432,  433,  456,  457,  480,  481,  504,  505,  528,  529,  552,  553,  576
  577,  600,  601,  624,  625,  648,  649,  672,  673,  696,  697,  720,  721,  744,  745,  768
  769,  792,  793,  816,  817,  840,  841,  864,  865,  888,  889,  912,  913,  936,  937,  960
  961,  984,  985, 1008, 1009, 1032, 1033, 1056, 1057, 1058, 1059, 1060, 1061, 1128, 1140, 1152
 1164, 1176, 1177, 1178, 1179, 1180, 1181, 1182, 1183, 1184, 1185, 1186, 1187, 1188, 1200, 1212
 1224, 1236, 1248, 1260, 1272, 1284, 1296, 1308, 1320, 1332, 1344, 1356, 1368, 1380, 1381, 1393
 1405, 1417, 1429, 1441, 1442, 1443, 1444, 1445, 1446, 1447, 1448, 1449, 1450, 1451, 1452, 1464
 1476, 1488, 1500, 1512, 1524, 1536, 1548, 1560, 1572, 1584, 1585, 1608, 1609, 1632, 1633, 1634
 1635, 1636, 1637, 1638, 1639, 1640, 1641, 1642, 1643, 1644, 1645, 1646, 1647, 1648, 1649, 1650
 1651, 1652, 1653, 1654, 1655, 1656, 1657, 1680, 1681, 1704, 1705, 1706, 1707, 1708, 1709, 1710
 1711, 1712, 1713, 1714, 1715, 1716, 1717, 1718, 1719, 1720, 1721, 1722, 1723, 1724, 1725, 1726
 1727, 1728
*Elset, elset=AllOutside, instance=TargetPlate-3
    1,   24,   25,   48,   49,   72,   73,   96,   97,  120,  121,  144,  145,  168,  169,  192
  193,  216,  217,  240,  241,  264,  265,  288,  289,  312,  313,  336,  337,  360,  361,  384
  385,  408,  409,  432,  433,  456,  457,  480,  481,  504,  505,  528,  529,  530,  531,  532
  533,  534,  535,  536,  537,  538,  539,  540,  541,  542,  543,  544,  545,  546,  547,  548
  549,  550,  551,  552,  553,  554,  555,  556,  557,  558,  559,  560,  561,  562,  563,  564
  565,  566,  567,  568,  569,  570,  571,  572,  573,  574,  575,  576,  577,  578,  579,  580
  581,  582,  583,  584,  585,  586,  587,  588,  589,  590,  591,  592,  593,  594,  595,  596
  597,  598,  599,  600,  601,  602,  603,  604,  605,  606,  607,  608,  609,  610,  611,  612
  613,  614,  615,  616,  617,  618,  619,  620,  621,  622,  623,  624,  625,  626,  627,  628
  629,  630,  631,  632,  633,  634,  635,  636,  637,  638,  639,  640,  641,  642,  643,  644
  645,  646,  647,  648,  649,  650,  651,  652,  653,  654,  655,  656,  657,  658,  659,  660
  661,  662,  663,  664,  665,  666,  667,  668,  669,  670,  671,  672,  673,  674,  675,  676
  677,  678,  679,  680,  681,  682,  683,  684,  685,  686,  687,  688,  689,  690,  691,  692
  693,  694,  695,  696,  697,  698,  699,  700,  701,  702,  703,  704,  705,  706,  707,  708
  709,  710,  711,  712,  713,  714,  715,  716,  717,  718,  719,  720,  721,  722,  723,  724
  725,  726,  727,  728,  729,  730,  731,  732,  733,  734,  735,  736,  737,  738,  739,  740
  741,  742,  743,  744,  745,  746,  747,  748,  749,  750,  751,  752,  753,  754,  755,  756
  757,  758,  759,  760,  761,  762,  763,  764,  765,  766,  767,  768,  769,  770,  771,  772
  773,  774,  775,  776,  777,  778,  779,  780,  781,  782,  783,  784,  785,  786,  787,  788
  789,  790,  791,  792,  793,  794,  795,  796,  797,  798,  799,  800,  801,  802,  803,  804
** ... 41 like lines cut
*Nset, nset=Clamp, instance=TargetPlate-1
    1,    2,   13,   14,   17,   18,   19,   20,   21,   22,   23,   24,   25,   26,   27,   28
   29,   30,   31,   32,   33,   34,   35,   36,   37,   38,   39,  260,  261,  262,  263,  264
  265,  266,  267,  268,  269,  270,  271,  272,  273,  274,  275,  276,  277,  278,  279,  280
  281,  282,  283,  284,  285,  286, 1874, 1875, 1876, 1877, 1878, 1879, 1880, 1881, 1882, 1883
 1884, 1885, 1886, 1887, 1888, 1889, 1890, 1891, 1892, 1893, 1894, 1895, 1896, 1897, 1898, 1899
 1900, 1901, 1902, 1903, 1904, 1905, 1906, 1907, 1908, 1909, 1910, 1911, 1912, 1913, 1914, 1915
 1916, 1917, 1918, 1919
*Nset, nset=Clamp, instance=TargetPlate-3
    5,    6,   10,   15,   16,  105,  106,  107,  108,  109,  110,  111,  112,  113,  114,  115
  116,  117,  118,  119,  120,  121,  122,  123,  124,  125,  126,  287,  288,  289,  290,  291
  292,  293,  294,  295,  296,  297,  298,  299,  300,  301,  302,  303,  304,  305,  306,  307
  308,  309,  310,  311,  312,  313, 1920, 1921, 1922, 1923, 1924, 1925, 1926, 1927, 1928, 1929
 1930, 1931, 1932, 1933, 1934, 1935, 1936, 1937, 1938, 1939, 1940, 1941, 1942, 1943, 1944, 1945
 1946, 1947, 1948, 1949, 1950, 1951, 1952, 1953, 1954, 1955, 1956, 1957, 1958, 1959, 1960, 1961
 1962, 1963, 1964, 1965
*Elset, elset=Clamp, instance=TargetPlate-1, generate
 1585,  1656,     1
*Elset, elset=Clamp, instance=TargetPlate-3, generate
 1657,  1728,     1
*Nset, nset=HOST, instance=TargetPlate-1, generate
    1,  2757,     1
*Nset, nset=HOST, instance=TargetPlate-2, generate
    1,  2757,     1
*Nset, nset=HOST, instance=TargetPlate-3, generate
    1,  2757,     1
*Elset, elset=HOST, instance=TargetPlate-1, generate
    1,  1728,     1
*Elset, elset=HOST, instance=TargetPlate-2, generate
    1,  1728,     1
*Elset, elset=HOST, instance=TargetPlate-3, generate
    1,  1728,     1
*Nset, nset=Outside, instance=TargetPlate-1
    1,    2,    3,    4,   11,   13,   14,   15,   16,   17,   18,   19,   20,   21,   22,   23
   24,   25,   26,   27,   28,   29,   30,   31,   32,   33,   34,   35,   36,   37,   38,   39
   40,   41,   42,   43,   44,   45,   46,   47,   48,   49,   50,   51,   52,   53,   54,   55
   56,   57,   58,   59,   60,   61,   62,   63,   64,   65,   66,   67,   68,   69,   70,   71
   72,   73,   74,   75,   76,   77,   78,   79,   80,   81,   82,   83,   84,   85,   86,   87
   88,   89,   90,   91,   92,   93,   94,   95,   96,   97,   98,   99,  100,  101,  102,  103
  104,  195,  196,  197,  198,  199,  200,  201,  202,  203,  204,  205,  206,  207,  208,  209
  210,  211,  212,  213,  214,  215,  216,  217,  218,  219,  220,  221,  222,  223,  224,  225
  226,  260,  261,  262,  263,  264,  265,  266,  267,  268,  269,  270,  271,  272,  273,  274
  275,  276,  277,  278,  279,  280,  281,  282,  283,  284,  285,  286,  289,  290,  291,  292
  293,  294,  295,  296,  297,  298,  299,  300,  301,  302,  303,  304,  305,  306,  307,  308
  309,  310,  311,  314,  315,  316,  317,  318,  319,  320,  321,  322,  323,  324,  325,  326
  327,  328,  329,  330,  331,  332,  333,  334,  335,  336,  337,  338,  339,  340,  341,  342
  343,  344,  345,  346,  347,  348,  349,  350,  351,  352,  353,  354,  355,  356,  357,  358
  359,  360,  361,  362,  363,  364,  365,  366,  367,  368,  369,  370,  371,  372,  373,  374
  375,  376,  377,  378,  379,  380,  381,  382,  383,  384,  385,  386,  387,  388,  389,  390
  391,  392,  393,  394,  395,  396,  397,  398,  399,  400,  401,  402,  403,  404,  405,  406
  407,  408,  409,  410,  411,  412,  413,  414,  415,  416,  417,  418,  419,  420,  421,  422
  423,  424,  425,  426,  427,  428,  429,  430,  431,  432,  433,  434,  435,  436,  437,  438
  439,  440,  441,  442,  443,  444,  445,  446,  447,  448,  449,  450,  451,  452,  453,  454
** ... 41 like lines cut
*Nset, nset=Outside, instance=TargetPlate-2
   13,   14,   15,   16,  262,  263,  264,  265,  266,  267,  268,  269,  270,  271,  272,  273
  274,  275,  276,  277,  278,  279,  280,  281,  282,  283,  284,  289,  290,  291,  292,  293
  294,  295,  296,  297,  298,  299,  300,  301,  302,  303,  304,  305,  306,  307,  308,  309
  310,  311,  314,  315, 1970, 1971, 1972, 1973, 1974, 1975, 1976, 1977, 1978, 1979, 1980, 1981
 1982, 1983, 1984, 1985, 1986, 1987, 1988, 1989, 1990, 1991, 1992
*Nset, nset=Outside, instance=TargetPlate-3
   13,   14,   15,   16,  262,  263,  264,  265,  266,  267,  268,  269,  270,  271,  272,  273
  274,  275,  276,  277,  278,  279,  280,  281,  282,  283,  284,  289,  290,  291,  292,  293
  294,  295,  296,  297,  298,  299,  300,  301,  302,  303,  304,  305,  306,  307,  308,  309
  310,  311,  314,  315, 1970, 1971, 1972, 1973, 1974, 1975, 1976, 1977, 1978, 1979, 1980, 1981
 1982, 1983, 1984, 1985, 1986, 1987, 1988, 1989, 1990, 1991, 1992
*Elset, elset=Outside, instance=TargetPlate-1
    1,    2,    3,    4,    5,    6,    7,    8,    9,   10,   11,   12,   13,   14,   15,   16
   17,   18,   19,   20,   21,   22,   23,   24,   25,   26,   27,   28,   29,   30,   31,   32
   33,   34,   35,   36,   37,   38,   39,   40,   41,   42,   43,   44,   45,   46,   47,   48
   49,   50,   51,   52,   53,   54,   55,   56,   57,   58,   59,   60,   61,   62,   63,   64
   65,   66,   67,   68,   69,   70,   71,   72,   73,   74,   75,   76,   77,   78,   79,   80
   81,   82,   83,   84,   85,   86,   87,   88,   89,   90,   91,   92,   93,   94,   95,   96
   97,   98,   99,  100,  101,  102,  103,  104,  105,  106,  107,  108,  109,  110,  111,  112
  113,  114,  115,  116,  117,  118,  119,  120,  121,  122,  123,  124,  125,  126,  127,  128
  129,  130,  131,  132,  133,  134,  135,  136,  137,  138,  139,  140,  141,  142,  143,  144
  145,  146,  147,  148,  149,  150,  151,  152,  153,  154,  155,  156,  157,  158,  159,  160
  161,  162,  163,  164,  165,  166,  167,  168,  169,  170,  171,  172,  173,  174,  175,  176
  177,  178,  179,  180,  181,  182,  183,  184,  185,  186,  187,  188,  189,  190,  191,  192
  193,  194,  195,  196,  197,  198,  199,  200,  201,  202,  203,  204,  205,  206,  207,  208
  209,  210,  211,  212,  213,  214,  215,  216,  217,  218,  219,  220,  221,  222,  223,  224
  225,  226,  227,  228,  229,  230,  231,  232,  233,  234,  235,  236,  237,  238,  239,  240
  241,  242,  243,  244,  245,  246,  247,  248,  249,  250,  251,  252,  253,  254,  255,  256
  257,  258,  259,  260,  261,  262,  263,  264,  265,  266,  267,  268,  269,  270,  271,  272
  273,  274,  275,  276,  277,  278,  279,  280,  281,  282,  283,  284,  285,  286,  287,  288
  289,  290,  291,  292,  293,  294,  295,  296,  297,  298,  299,  300,  301,  302,  303,  304
  305,  306,  307,  308,  309,  310,  311,  312,  313,  314,  315,  316,  317,  318,  319,  320
** ... 36 like lines cut
*Elset, elset=Outside, instance=TargetPlate-2
 1633, 1634, 1635, 1636, 1637, 1638, 1639, 1640, 1641, 1642, 1643, 1644, 1645, 1646, 1647, 1648
 1649, 1650, 1651, 1652, 1653, 1654, 1655, 1656, 1705, 1706, 1707, 1708, 1709, 1710, 1711, 1712
 1713, 1714, 1715, 1716, 1717, 1718, 1719, 1720, 1721, 1722, 1723, 1724, 1725, 1726, 1727, 1728
*Elset, elset=Outside, instance=TargetPlate-3
 1633, 1634, 1635, 1636, 1637, 1638, 1639, 1640, 1641, 1642, 1643, 1644, 1645, 1646, 1647, 1648
 1649, 1650, 1651, 1652, 1653, 1654, 1655, 1656, 1705, 1706, 1707, 1708, 1709, 1710, 1711, 1712
 1713, 1714, 1715, 1716, 1717, 1718, 1719, 1720, 1721, 1722, 1723, 1724, 1725, 1726, 1727, 1728
*Nset, nset=XSymm, instance=TargetPlate-1
    2,    3,    6,    7,   11,   12,   14,   16,   40,   41,   42,   43,   44,   45,   46,   47
   48,   49,   50,   51,   52,   53,   54,   55,   56,   57,   58,   59,   60,  127,  128,  129
  130,  131,  132,  133,  134,  135,  136,  137,  138,  139,  140,  141,  142,  143,  144,  145
  146,  147,  193,  194,  211,  212,  213,  214,  215,  216,  217,  218,  219,  220,  221,  222
  223,  224,  225,  226,  227,  228,  229,  230,  231,  232,  233,  234,  235,  236,  237,  238
  239,  240,  241,  242,  243,  285,  286,  312,  313,  314, 1303, 1304, 1305, 1306, 1307, 1308
 1309, 1310, 1311, 1312, 1313, 1314, 1315, 1316, 1317, 1318, 1319, 1320, 1321, 1322, 1323, 1622
 1623, 1624, 1625, 1626, 1627, 1628, 1629, 1630, 1631, 1632, 1633, 1634, 1635, 1636, 1637, 1966
 1967,
*Nset, nset=XSymm, instance=SteelProjectile-1
   2,   3,   5,   6,   7,   8,   9,  10,  11,  12,  13,  14,  15,  16,  17,  18
  19,  20,  21,  22,  23,  92,  93,  94,  95,  96,  97,  98,  99, 100, 101, 102
 103, 104, 105, 106, 107, 108, 109, 110, 111, 112, 113, 114, 115, 116, 117, 118
 119, 120, 576, 577, 578, 579, 580, 581, 582, 583, 584, 585, 586, 587, 588, 589
 590, 591, 592, 593, 594, 595, 596, 597, 598, 599, 600, 601, 602, 603, 604, 605
 606, 607, 608, 609, 610, 611, 612, 613, 614, 615, 616, 617, 618, 619, 620, 621
 622, 623, 624, 625, 626, 627, 628, 629, 630, 631, 632, 633, 634, 635, 636, 637
 638, 639, 640, 641, 642, 643, 644, 645, 646, 647, 648, 649, 650, 651, 652, 653
 654, 655, 656, 657, 658, 659, 660, 661, 662, 663, 664, 665, 666, 667, 668, 669
 670, 671, 672, 673, 674, 675, 676, 677, 678, 679, 680, 681, 682, 683, 684, 685
 686, 687, 688, 689, 690, 691, 692, 693, 694, 695, 696, 697, 698, 699, 700, 701
 702, 703, 704, 705, 706, 707, 708, 709, 710, 711, 712, 713, 714, 715, 716, 717
 718, 719, 720, 721, 722, 723, 724, 725, 726, 727, 728, 729, 730
*Nset, nset=XSymm, instance=TargetPlate-2
    2,    3,    6,    7,   11,   12,   14,   16,   40,   41,   42,   43,   44,   45,   46,   47
   48,   49,   50,   51,   52,   53,   54,   55,   56,   57,   58,   59,   60,  127,  128,  129
  130,  131,  132,  133,  134,  135,  136,  137,  138,  139,  140,  141,  142,  143,  144,  145
  146,  147,  193,  194,  211,  212,  213,  214,  215,  216,  217,  218,  219,  220,  221,  222
  223,  224,  225,  226,  227,  228,  229,  230,  231,  232,  233,  234,  235,  236,  237,  238
  239,  240,  241,  242,  243,  285,  286,  312,  313,  314, 1303, 1304, 1305, 1306, 1307, 1308
 1309, 1310, 1311, 1312, 1313, 1314, 1315, 1316, 1317, 1318, 1319, 1320, 1321, 1322, 1323, 1622
 1623, 1624, 1625, 1626, 1627, 1628, 1629, 1630, 1631, 1632, 1633, 1634, 1635, 1636, 1637, 1966
 1967,
*Nset, nset=XSymm, instance=TargetPlate-3
    2,    3,    6,    7,   11,   12,   14,   16,   40,   41,   42,   43,   44,   45,   46,   47
   48,   49,   50,   51,   52,   53,   54,   55,   56,   57,   58,   59,   60,  127,  128,  129
  130,  131,  132,  133,  134,  135,  136,  137,  138,  139,  140,  141,  142,  143,  144,  145
  146,  147,  193,  194,  211,  212,  213,  214,  215,  216,  217,  218,  219,  220,  221,  222
  223,  224,  225,  226,  227,  228,  229,  230,  231,  232,  233,  234,  235,  236,  237,  238
  239,  240,  241,  242,  243,  285,  286,  312,  313,  314, 1303, 1304, 1305, 1306, 1307, 1308
 1309, 1310, 1311, 1312, 1313, 1314, 1315, 1316, 1317, 1318, 1319, 1320, 1321, 1322, 1323, 1622
 1623, 1624, 1625, 1626, 1627, 1628, 1629, 1630, 1631, 1632, 1633, 1634, 1635, 1636, 1637, 1966
 1967,
*Elset, elset=XSymm, instance=TargetPlate-1
   24,   48,   72,   96,  120,  144,  168,  192,  216,  240,  264,  288,  312,  336,  360,  384
  408,  432,  456,  480,  504,  528,  552,  576,  600,  624,  648,  672,  696,  720,  744,  768
  792,  816,  840,  864,  888,  912,  936,  960,  984, 1008, 1032, 1056, 1128, 1140, 1152, 1164
 1176, 1177, 1178, 1179, 1180, 1181, 1182, 1183, 1184, 1185, 1186, 1187, 1188, 1332, 1344, 1356
 1368, 1380, 1441, 1442, 1443, 1444, 1445, 1446, 1447, 1448, 1449, 1450, 1451, 1452, 1585, 1609
 1633, 1657, 1681, 1705
*Elset, elset=XSymm, instance=SteelProjectile-1
 1877, 1878, 1879, 1880, 1881, 1882, 1883, 1884, 1885, 1886, 1887, 1888, 1889, 1890, 1891, 1892
 1893, 1894, 1895, 1896, 1897, 1898, 1899, 1900, 1901, 1902, 1903, 1904, 1905, 1906, 1907, 1908
 1909, 1910, 1911, 1912, 1913, 1914, 1915, 1916, 1917, 1918, 1919, 1920, 1921, 1922, 1923, 1924
 1925, 1926, 1927, 1928, 1929, 1930, 1931, 1932, 1933, 1934, 1935, 1936, 1937, 1938, 1939, 1940
 1941, 1942, 1943, 1944, 1945, 1946, 1947, 1948, 1949, 1950, 1951, 1952, 1953, 1954, 1955, 1956
 1957, 1958, 1959, 1960, 1961, 1962, 1963, 1964, 1965, 1966, 1967, 1968, 1969, 1970, 1971, 1972
 1973, 1974, 1975, 1976, 1977, 1978, 1979, 1980, 1981, 1982, 1983, 1984, 1985, 1986, 1987, 1988
 1989, 1990, 1991, 1992, 1993, 1994, 1995, 1996, 1997, 1998, 1999, 2000, 2001, 2002, 2003, 2004
 2005, 2006, 2007, 2008, 2009, 2010, 2011, 2012, 2013, 2014, 2015, 2016, 2017, 2018, 2019, 2020
 2021, 2022, 2023, 2024, 2025, 2026, 2027, 2028, 2029, 2030, 2031, 2032, 2033, 2034, 2130, 2131
 2132, 2133, 2134, 2135, 2136, 2137, 2138, 2139, 2140, 2141, 2142, 2143, 2144, 2145, 2146, 2147
 2148, 2169, 2170, 2171, 2172
*Elset, elset=XSymm, instance=TargetPlate-2
   24,   48,   72,   96,  120,  144,  168,  192,  216,  240,  264,  288,  312,  336,  360,  384
  408,  432,  456,  480,  504,  528,  552,  576,  600,  624,  648,  672,  696,  720,  744,  768
  792,  816,  840,  864,  888,  912,  936,  960,  984, 1008, 1032, 1056, 1128, 1140, 1152, 1164
 1176, 1177, 1178, 1179, 1180, 1181, 1182, 1183, 1184, 1185, 1186, 1187, 1188, 1332, 1344, 1356
 1368, 1380, 1441, 1442, 1443, 1444, 1445, 1446, 1447, 1448, 1449, 1450, 1451, 1452, 1585, 1609
 1633, 1657, 1681, 1705
*Elset, elset=XSymm, instance=TargetPlate-3
   24,   48,   72,   96,  120,  144,  168,  192,  216,  240,  264,  288,  312,  336,  360,  384
  408,  432,  456,  480,  504,  528,  552,  576,  600,  624,  648,  672,  696,  720,  744,  768
  792,  816,  840,  864,  888,  912,  936,  960,  984, 1008, 1032, 1056, 1128, 1140, 1152, 1164
 1176, 1177, 1178, 1179, 1180, 1181, 1182, 1183, 1184, 1185, 1186, 1187, 1188, 1332, 1344, 1356
 1368, 1380, 1441, 1442, 1443, 1444, 1445, 1446, 1447, 1448, 1449, 1450, 1451, 1452, 1585, 1609
 1633, 1657, 1681, 1705
*Nset, nset=YSymm, instance=TargetPlate-1
    1,    4,    8,   10,   11,   12,   13,   15,   84,   85,   86,   87,   88,   89,   90,   91
   92,   93,   94,   95,   96,   97,   98,   99,  100,  101,  102,  103,  104,  170,  171,  172
  173,  174,  175,  176,  177,  178,  179,  180,  181,  182,  183,  184,  185,  186,  187,  188
  189,  190,  191,  192,  195,  196,  197,  198,  199,  200,  201,  202,  203,  204,  205,  206
  207,  208,  209,  210,  227,  244,  245,  246,  247,  248,  249,  250,  251,  252,  253,  254
  255,  256,  257,  258,  259,  260,  261,  287,  288,  315, 1282, 1283, 1284, 1285, 1286, 1287
 1288, 1289, 1290, 1291, 1292, 1293, 1294, 1295, 1296, 1297, 1298, 1299, 1300, 1301, 1302, 1606
 1607, 1608, 1609, 1610, 1611, 1612, 1613, 1614, 1615, 1616, 1617, 1618, 1619, 1620, 1621, 1968
 1969,
*Nset, nset=YSymm, instance=SteelProjectile-1
   2,   3,   4,   6,   7,   8,   9,  10,  11,  12,  13,  14,  15,  16,  17,  18
  19,  20,  21,  22,  23,  58,  59,  60,  61,  62,  63,  64,  65,  66,  67,  68
  69,  70,  71,  72,  73,  74,  75,  76,  77,  78,  79,  80,  81,  82,  83,  84
  85,  86, 276, 277, 278, 279, 280, 281, 282, 283, 284, 285, 286, 287, 288, 289
 290, 291, 292, 293, 294, 295, 296, 297, 298, 299, 300, 301, 302, 303, 304, 305
 306, 307, 308, 309, 310, 311, 312, 313, 314, 315, 316, 317, 318, 319, 320, 321
 322, 323, 324, 325, 326, 327, 328, 329, 330, 331, 332, 333, 334, 335, 336, 337
 338, 339, 340, 341, 342, 343, 344, 345, 346, 347, 348, 349, 350, 351, 352, 353
 354, 355, 356, 357, 358, 359, 360, 361, 362, 363, 364, 365, 366, 367, 368, 369
 370, 371, 372, 373, 374, 375, 376, 377, 378, 379, 380, 381, 382, 383, 384, 385
 386, 387, 388, 389, 390, 391, 392, 393, 394, 395, 396, 397, 398, 399, 400, 401
 402, 403, 404, 405, 406, 407, 408, 409, 410, 411, 412, 413, 414, 415, 416, 417
 418, 419, 420, 421, 422, 423, 424, 425, 426, 427, 428, 429, 430
*Nset, nset=YSymm, instance=TargetPlate-2
    1,    4,    8,   10,   11,   12,   13,   15,   84,   85,   86,   87,   88,   89,   90,   91
   92,   93,   94,   95,   96,   97,   98,   99,  100,  101,  102,  103,  104,  170,  171,  172
  173,  174,  175,  176,  177,  178,  179,  180,  181,  182,  183,  184,  185,  186,  187,  188
  189,  190,  191,  192,  195,  196,  197,  198,  199,  200,  201,  202,  203,  204,  205,  206
  207,  208,  209,  210,  227,  244,  245,  246,  247,  248,  249,  250,  251,  252,  253,  254
  255,  256,  257,  258,  259,  260,  261,  287,  288,  315, 1282, 1283, 1284, 1285, 1286, 1287
 1288, 1289, 1290, 1291, 1292, 1293, 1294, 1295, 1296, 1297, 1298, 1299, 1300, 1301, 1302, 1606
 1607, 1608, 1609, 1610, 1611, 1612, 1613, 1614, 1615, 1616, 1617, 1618, 1619, 1620, 1621, 1968
 1969,
*Nset, nset=YSymm, instance=TargetPlate-3
    1,    4,    8,   10,   11,   12,   13,   15,   84,   85,   86,   87,   88,   89,   90,   91
   92,   93,   94,   95,   96,   97,   98,   99,  100,  101,  102,  103,  104,  170,  171,  172
  173,  174,  175,  176,  177,  178,  179,  180,  181,  182,  183,  184,  185,  186,  187,  188
  189,  190,  191,  192,  195,  196,  197,  198,  199,  200,  201,  202,  203,  204,  205,  206
  207,  208,  209,  210,  227,  244,  245,  246,  247,  248,  249,  250,  251,  252,  253,  254
  255,  256,  257,  258,  259,  260,  261,  287,  288,  315, 1282, 1283, 1284, 1285, 1286, 1287
 1288, 1289, 1290, 1291, 1292, 1293, 1294, 1295, 1296, 1297, 1298, 1299, 1300, 1301, 1302, 1606
 1607, 1608, 1609, 1610, 1611, 1612, 1613, 1614, 1615, 1616, 1617, 1618, 1619, 1620, 1621, 1968
 1969,
*Elset, elset=YSymm, instance=TargetPlate-1
    1,   25,   49,   73,   97,  121,  145,  169,  193,  217,  241,  265,  289,  313,  337,  361
  385,  409,  433,  457,  481,  505,  529,  553,  577,  601,  625,  649,  673,  697,  721,  745
  769,  793,  817,  841,  865,  889,  913,  937,  961,  985, 1009, 1033, 1057, 1058, 1059, 1060
 1061, 1188, 1200, 1212, 1224, 1236, 1248, 1260, 1272, 1284, 1296, 1308, 1320, 1381, 1393, 1405
 1417, 1429, 1452, 1464, 1476, 1488, 1500, 1512, 1524, 1536, 1548, 1560, 1572, 1584, 1608, 1632
 1656, 1680, 1704, 1728
*Elset, elset=YSymm, instance=SteelProjectile-1
  791,  792,  793,  794,  795,  796,  797,  798,  799,  800,  801,  802,  803,  804,  805,  806
  807,  808,  809,  810,  811,  812,  813,  814,  815,  816,  817,  818,  819,  820,  821,  822
  823,  824,  825,  826,  827,  828,  829,  830,  831,  832,  833,  834,  835,  836,  837,  838
  839,  840,  841,  842,  843,  844,  845,  846,  847,  848,  849,  850,  851,  852,  853,  854
  855,  856,  857,  858,  859,  860,  861,  862,  863,  864,  865,  866,  867,  868,  869,  870
  871,  872,  873,  874,  875,  876,  877,  878,  879,  880,  881,  882,  883,  884,  885,  886
  887,  888,  889,  890,  891,  892,  893,  894,  895,  896,  897,  898,  899,  900,  901,  902
  903,  904,  905,  906,  907,  908,  909,  910,  911,  912,  913,  914,  915,  916,  917,  918
  919,  920,  921,  922,  923,  924,  925,  926,  927,  928,  929,  930,  931,  932,  933,  934
  935,  936,  937,  938,  939,  940,  941,  942,  943,  944,  945,  946,  947,  948, 1044, 1045
 1046, 1047, 1048, 1049, 1050, 1051, 1052, 1053, 1054, 1055, 1056, 1057, 1058, 1059, 1060, 1061
 1062, 1083, 1084, 1085, 1086
*Elset, elset=YSymm, instance=TargetPlate-2
    1,   25,   49,   73,   97,  121,  145,  169,  193,  217,  241,  265,  289,  313,  337,  361
  385,  409,  433,  457,  481,  505,  529,  553,  577,  601,  625,  649,  673,  697,  721,  745
  769,  793,  817,  841,  865,  889,  913,  937,  961,  985, 1009, 1033, 1057, 1058, 1059, 1060
 1061, 1188, 1200, 1212, 1224, 1236, 1248, 1260, 1272, 1284, 1296, 1308, 1320, 1381, 1393, 1405
 1417, 1429, 1452, 1464, 1476, 1488, 1500, 1512, 1524, 1536, 1548, 1560, 1572, 1584, 1608, 1632
 1656, 1680, 1704, 1728
*Elset, elset=YSymm, instance=TargetPlate-3
    1,   25,   49,   73,   97,  121,  145,  169,  193,  217,  241,  265,  289,  313,  337,  361
  385,  409,  433,  457,  481,  505,  529,  553,  577,  601,  625,  649,  673,  697,  721,  745
  769,  793,  817,  841,  865,  889,  913,  937,  961,  985, 1009, 1033, 1057, 1058, 1059, 1060
 1061, 1188, 1200, 1212, 1224, 1236, 1248, 1260, 1272, 1284, 1296, 1308, 1320, 1381, 1393, 1405
 1417, 1429, 1452, 1464, 1476, 1488, 1500, 1512, 1524, 1536, 1548, 1560, 1572, 1584, 1608, 1632
 1656, 1680, 1704, 1728
*Elset, elset=_ALLCONT_S1, internal, instance=TargetPlate-1, generate
    1,  1728,     1
*Elset, elset=_ALLCONT_S1, internal, instance=SteelProjectile-1, generate
    1,  2172,     1
*Elset, elset=_ALLCONT_S1, internal, instance=TargetPlate-2, generate
    1,  1728,     1
*Elset, elset=_ALLCONT_S1, internal, instance=TargetPlate-3, generate
    1,  1728,     1
*Elset, elset=_ALLCONT_S2, internal, instance=TargetPlate-1, generate
    1,  1728,     1
*Elset, elset=_ALLCONT_S2, internal, instance=SteelProjectile-1, generate
    1,  2172,     1
*Elset, elset=_ALLCONT_S2, internal, instance=TargetPlate-2, generate
    1,  1728,     1
*Elset, elset=_ALLCONT_S2, internal, instance=TargetPlate-3, generate
    1,  1728,     1
*Elset, elset=_ALLCONT_S3, internal, instance=TargetPlate-1, generate
    1,  1728,     1
*Elset, elset=_ALLCONT_S3, internal, instance=SteelProjectile-1, generate
    1,  2172,     1
*Elset, elset=_ALLCONT_S3, internal, instance=TargetPlate-2, generate
    1,  1728,     1
*Elset, elset=_ALLCONT_S3, internal, instance=TargetPlate-3, generate
    1,  1728,     1
*Elset, elset=_ALLCONT_S4, internal, instance=TargetPlate-1, generate
    1,  1728,     1
*Elset, elset=_ALLCONT_S4, internal, instance=SteelProjectile-1, generate
    1,  2172,     1
*Elset, elset=_ALLCONT_S4, internal, instance=TargetPlate-2, generate
    1,  1728,     1
*Elset, elset=_ALLCONT_S4, internal, instance=TargetPlate-3, generate
    1,  1728,     1
*Elset, elset=_ALLCONT_S5, internal, instance=TargetPlate-1, generate
    1,  1728,     1
*Elset, elset=_ALLCONT_S5, internal, instance=SteelProjectile-1, generate
    1,  2172,     1
*Elset, elset=_ALLCONT_S5, internal, instance=TargetPlate-2, generate
    1,  1728,     1
*Elset, elset=_ALLCONT_S5, internal, instance=TargetPlate-3, generate
    1,  1728,     1
*Elset, elset=_ALLCONT_S6, internal, instance=TargetPlate-1, generate
    1,  1728,     1
*Elset, elset=_ALLCONT_S6, internal, instance=SteelProjectile-1
    1,    2,    3,    4,    5,    6,    7,    8,    9,   10,   11,   12,   13,   14,   15,   16
   17,   18,   19,   20,   21,   22,   23,   24,   25,   26,   27,   28,   29,   30,   31,   32
   33,   34,   35,   36,   37,   38,   39,   40,   41,   42,   43,   44,   45,   46,   47,   48
   49,   50,   51,   52,   53,   54,   55,   56,   57,   58,   59,   60,   61,   62,   63,   64
   65,   66,   67,   68,   69,   70,   71,   72,   73,   74,   75,   76,   77,   78,   79,   80
   81,   82,   83,   84,   85,   86,   87,   88,   89,   90,   91,   92,   93,   94,   95,   96
   97,   98,   99,  100,  101,  102,  103,  104,  105,  106,  107,  108,  109,  110,  111,  112
  113,  114,  115,  116,  117,  118,  119,  120,  121,  122,  123,  124,  125,  126,  127,  128
  129,  130,  131,  132,  133,  134,  135,  136,  137,  138,  139,  140,  141,  142,  143,  144
  145,  146,  147,  148,  149,  150,  151,  152,  153,  154,  155,  156,  157,  158,  159,  160
  161,  162,  163,  164,  165,  166,  167,  168,  169,  170,  171,  172,  173,  174,  175,  176
  177,  178,  179,  180,  181,  182,  183,  184,  185,  186,  187,  188,  189,  190,  191,  192
  193,  194,  195,  196,  197,  198,  199,  200,  201,  202,  203,  204,  205,  206,  207,  208
  209,  210,  211,  212,  213,  214,  215,  216,  217,  218,  219,  220,  221,  222,  223,  224
  225,  226,  227,  228,  229,  230,  231,  232,  233,  234,  235,  236,  237,  238,  239,  240
  241,  242,  243,  244,  245,  246,  247,  248,  249,  250,  251,  252,  253,  254,  255,  256
  257,  258,  259,  260,  261,  262,  263,  264,  265,  266,  267,  268,  269,  270,  271,  272
  273,  274,  275,  276,  277,  278,  279,  280,  281,  282,  283,  284,  285,  286,  287,  288
  289,  290,  291,  292,  293,  294,  295,  296,  297,  298,  299,  300,  301,  302,  303,  304
  305,  306,  307,  308,  309,  310,  311,  312,  313,  314,  315,  316,  317,  318,  319,  320
** ... 99 like lines cut
*Elset, elset=_ALLCONT_S6, internal, instance=TargetPlate-2, generate
    1,  1728,     1
*Elset, elset=_ALLCONT_S6, internal, instance=TargetPlate-3, generate
    1,  1728,     1
*Surface, type=ELEMENT, name=ALLCONT
_ALLCONT_S1, S1
_ALLCONT_S2, S2
_ALLCONT_S4, S4
_ALLCONT_S6, S6
_ALLCONT_S3, S3
_ALLCONT_S5, S5
*End Assembly
** 
** ELEMENT CONTROLS
** 
*Section Controls, name=EC-1, ELEMENT DELETION=YES, MAX DEGRADATION=0.05
1., 1., 1.
*Section Controls, name=EC-2, ELEMENT DELETION=YES
1., 1., 1.
** 
** MATERIALS
** 
*Material, name=DyneemaMatrix_Utomo
*Density
308.,
*Elastic, type=ENGINEERING CONSTANTS
 4.04e+10,  4.04e+10, 4.271e+09,      0.02,      0.06,       0.5,     9e+08,     4e+08
     4e+08,
*Material, name=Dyneema_Hazzard_idk
*Density
970.,
*Elastic, type=ENGINEERING CONSTANTS
 3.4257e+10, 3.4257e+10,   3.26e+09,      0.001,      0.013,      0.013,  1.738e+08,  5.478e+08
  5.478e+08,
*Material, name=Dyneema_Lassig-Elastic
*Density
1100.,
*Elastic, type=ENGINEERING CONSTANTS
 2.69e+10, 2.69e+10, 3.62e+09,      0.1,      0.1,      0.5, 4.23e+07, 3.07e+07
 3.07e+07,
*Material, name=Dyneema_Lassig-Plastic
*Damage Initiation, criterion=DUCTILE
1., 0.333333,    0.001
*Damage Evolution, type=ENERGY, softening=EXPONENTIAL
790.,
*Density
1100.,
*Elastic, type=ENGINEERING CONSTANTS
 2.69e+10, 2.69e+10, 3.62e+09,      0.1,      0.1,      0.5, 4.23e+07, 3.07e+07
 3.07e+07,
*Plastic
  170000.,       0.
  176000., 0.000182
  989000.,   0.0012
 1.74e+06,  0.00311
 2.42e+06,  0.00692
  3.1e+06,   0.0113
 5.97e+06,   0.0283
  1.2e+07,   0.0578
 2.07e+07,    0.106
*Potential
 1e-05, 1e-05,  0.03, 1e-06, 1e-06, 1e-06
*Material, name=FIBERS_Fail
*Damage Initiation, criterion=DUCTILE
 0.03,   0., 0.01
*Damage Evolution, type=ENERGY
1.,
*Density
981.,
*Elastic
 2e+08, 0.3
*Plastic
 2.5e+09,0.
*Rate Dependent
1., 0.08
*Material, name=Fibers
*Density
981.,
*Elastic
 2e+08, 0.3
*Material, name=HardSteel
*Density
8000.,
*Elastic
 4e+11, 0.3
** Properties from Matweb: AISI Type M50 Tool Steel
*Material, name=M50_ToolSteel
*Damage Initiation, criterion=DUCTILE
 0.198, 0.33333,  0.0002
*Damage Evolution, type=ENERGY
201000.,
*Density
7970.,
*Elastic
 2.034e+11, 0.3
*Plastic
 1.894e+09,0.
*Material, name=Matrix
*Density
308.,
*Elastic, type=ORTHOTROPIC
 4.2e+10, 2.4e+09, 4.2e+10, 2.7e+09, 2.7e+09, 4.6e+09,   4e+08,   4e+08
   9e+08,
*Material, name=Polyurethane
*Density
980.,
*Elastic
 5.0776e+06,0.
*Plastic
     611343.,        0.
     663262., 0.0101742
     708155., 0.0198202
     753051., 0.0302479
     797940., 0.0419179
     842825., 0.0559543
     887708., 0.0735315
     932591.,  0.095815
     977476.,  0.122588
 1.02236e+06,   0.15079
 1.06725e+06,  0.177094
 1.11214e+06,  0.201089
 1.15702e+06,  0.225864
 1.20191e+06,  0.254717
 1.24679e+06,  0.290236
 1.29168e+06,  0.329759
 1.33656e+06,  0.368304
 1.38145e+06,   0.40377
 1.42634e+06,   0.43864
 1.47122e+06,  0.475688
** ... 71 like lines cut
** 
** INTERACTION PROPERTIES
** 
*Surface Interaction, name=Hazzard_Dyneema
*Cohesive Behavior
 3.26e+09, 5.478e+08, 5.478e+08
*Damage Initiation, criterion=QUADS
 1.2e+06, 1.8e+06, 1.8e+06
*Damage Evolution, type=ENERGY, softening=EXPONENTIAL, mixed mode behavior=POWER LAW, power=2.
544.,1088.,1088.
*Surface Interaction, name=IntProp-1
*Friction
 0.42,
*Surface Interaction, name=Lassig_Dyneema
*Cohesive Behavior, eligibility=CURRENT CONTACTS
 3.62e+09, 3.07e+07, 3.07e+07
*Damage Initiation, criterion=QUADS
 1.07e+06, 1.01e+26, 1.01e+26
*Damage Evolution, type=ENERGY, mixed mode behavior=BK, power=2.5
790., 1.46, 1.46
*Damage Stabilization
0.002
** 
** BOUNDARY CONDITIONS
** 
** Name: Clamp Type: Symmetry/Antisymmetry/Encastre
*Boundary
Clamp, ENCASTRE
** Name: SymmX Type: Symmetry/Antisymmetry/Encastre
*Boundary
XSymm, XSYMM
** Name: Symmy Type: Symmetry/Antisymmetry/Encastre
*Boundary
YSymm, YSYMM
** 
** PREDEFINED FIELDS
** 
** Name: ProjectileVel   Type: Velocity
*Initial Conditions, type=VELOCITY
SteelProjectile-1.All, 1, 0.
SteelProjectile-1.All, 2, 0.
SteelProjectile-1.All, 3, -800.
** ----------------------------------------------------------------
** 
** STEP: Step-1
** 
*Step, name=Step-1, nlgeom=YES
*Dynamic, Explicit
, 0.00015
*Bulk Viscosity
0.06, 1.2
** 
** INTERACTIONS
** 
** Interaction: GeneralContact
*Contact, op=NEW
*Contact Inclusions
ALLCONT , 
*Contact Property Assignment
 ,  , IntProp-1
TargetPlate-1.FrontFace , TargetPlate-2.BackFace , Hazzard_Dyneema
TargetPlate-2.FrontFace , TargetPlate-3.BackFace , Hazzard_Dyneema
** 
** OUTPUT REQUESTS
** 
*Restart, write, number interval=1, time marks=NO
** 
** FIELD OUTPUT: F-Output-1
** 
*Output, field, number interval=200
*Node Output
A, U, V
*Element Output, directions=YES
CFAILURE, DMICRT, ER, LE, MISES, PE, PEEQ, S, SDEG, SEQUT, STATUS
*Contact Output
CDISP, CFORCE, CSTATUS, CSTRESS
** 
** HISTORY OUTPUT: H-Output-1
** 
*Output, history, variable=PRESELECT
*End Step
