*Heading
** Job name: DyneemaPlate-Plastic Model name: DyneemaPlate-Plastic
** Generated by: Abaqus/CAE 2021
*Preprint, echo=NO, model=NO, history=NO, contact=NO
**
** PARTS
**
*Part, name=SteelProjectile
*Node
      1, 0.00260637561, -0.00301579502, 0.00260637561
      2,           0., 0.00476250006,           0.
      3,           0., -0.00476250006,           0.
      4,           0., -0.00301579502, 0.00368597172
      5, 0.00368597172, -0.00301579502,           0.
      6,           0., 0.00424308376,           0.
      7,           0., 0.00373797258,           0.
      8,           0., 0.00323740346,           0.
      9,           0., 0.00273847999,           0.
     10,           0., 0.00224014977,           0.
     11,           0., 0.00174203201,           0.
     12,           0., 0.00124399003,           0.
     13,           0., 0.000745975005,           0.
     14,           0., 0.00024796935,           0.
     15,           0., -0.000250032113,           0.
     16,           0., -0.000748031714,           0.
     17,           0., -0.00124602823,           0.
     18,           0., -0.00174401852,           0.
     19,           0., -0.00224199868,           0.
     20,           0., -0.00273996824,           0.
** ... 2405 like lines cut
*Element, type=C3D8R
  1,  139,  121,  122,  140,  894,  876,  877,  895
  2,  121,  139,   48,   49,  876,  894,  447,  448
  3,  123,  141,  140,  122,  878,  896,  895,  877
  4,  220,  181,  142,  173,  975,  936,  897,  928
  5,  146,  126,  127,  147,  901,  881,  882,  902
  6,  192,  187,  181,  221,  947,  942,  936,  976
  7,  172,  145,   43,   44,  927,  900,  442,  443
  8,  144,  143,  124,  125,  899,  898,  879,  880
  9,  171,  188,  179,  148,  926,  943,  934,  903
 10,  171,  148,   41,   42,  926,  903,  440,  441
 11,  170,  150,   39,   40,  925,  905,  438,  439
 12,  128,  149,  147,  127,  883,  904,  902,  882
 13,  189,  202,  203,  182,  944,  957,  958,  937
 14,  168,  189,  182,  153,  923,  944,  937,  908
 15,  130,  152,  151,  129,  885,  907,  906,  884
 16,  167,  185,  184,  156,  922,  940,  939,  911
 17,  167,  156,   34,   35,  922,  911,  433,  434
 18,  177,  191,  211,  195,  932,  946,  966,  950
 19,  185,  205,  207,  184,  940,  960,  962,  939
 20,  135,  160,  159,  134,  890,  915,  914,  889
** ... 1876 like lines cut
*Element, type=C3D6
 949,   23,  258, 1013,    3,   24,  536
 950,   22,  259, 1014,   23,  258, 1013
 951,   21,  260, 1015,   22,  259, 1014
 952,   20,  261, 1016,   21,  260, 1015
 953,   19,  262, 1017,   20,  261, 1016
 954,   18,  263, 1018,   19,  262, 1017
 955,   17,  264, 1019,   18,  263, 1018
 956,   16,  265, 1020,   17,  264, 1019
 957,   15,  266, 1021,   16,  265, 1020
 958,   14,  267, 1022,   15,  266, 1021
 959,   13,  268, 1023,   14,  267, 1022
 960,   12,  269, 1024,   13,  268, 1023
 961,   11,  270, 1025,   12,  269, 1024
 962,   10,  271, 1026,   11,  270, 1025
 963,    9,  272, 1027,   10,  271, 1026
 964,    8,  273, 1028,    9,  272, 1027
 965,    7,  274, 1029,    8,  273, 1028
 966,    6,  275, 1030,    7,  274, 1029
 967,    2,   52,  451,    6,  275, 1030
 968,   23, 1013, 1168,    3,  536,  544
** ... 256 like lines cut
*Nset, nset=All, generate
    1,  2425,     1
*Elset, elset=All, generate
    1,  2172,     1
*Nset, nset=Set-4, generate
    1,  2425,     1
*Elset, elset=Set-4, generate
    1,  2172,     1
*Nset, nset=XSymm
   2,   3,   5,   6,   7,   8,   9,  10,  11,  12,  13,  14,  15,  16,  17,  18
  19,  20,  21,  22,  23,  92,  93,  94,  95,  96,  97,  98,  99, 100, 101, 102
 103, 104, 105, 106, 107, 108, 109, 110, 111, 112, 113, 114, 115, 116, 117, 118
 119, 120, 576, 577, 578, 579, 580, 581, 582, 583, 584, 585, 586, 587, 588, 589
 590, 591, 592, 593, 594, 595, 596, 597, 598, 599, 600, 601, 602, 603, 604, 605
 606, 607, 608, 609, 610, 611, 612, 613, 614, 615, 616, 617, 618, 619, 620, 621
 622, 623, 624, 625, 626, 627, 628, 629, 630, 631, 632, 633, 634, 635, 636, 637
 638, 639, 640, 641, 642, 643, 644, 645, 646, 647, 648, 649, 650, 651, 652, 653
 654, 655, 656, 657, 658, 659, 660, 661, 662, 663, 664, 665, 666, 667, 668, 669
 670, 671, 672, 673, 674, 675, 676, 677, 678, 679, 680, 681, 682, 683, 684, 685
 686, 687, 688, 689, 690, 691, 692, 693, 694, 695, 696, 697, 698, 699, 700, 701
 702, 703, 704, 705, 706, 707, 708, 709, 710, 711, 712, 713, 714, 715, 716, 717
 718, 719, 720, 721, 722, 723, 724, 725, 726, 727, 728, 729, 730
*Elset, elset=XSymm
 1877, 1878, 1879, 1880, 1881, 1882, 1883, 1884, 1885, 1886, 1887, 1888, 1889, 1890, 1891, 1892
 1893, 1894, 1895, 1896, 1897, 1898, 1899, 1900, 1901, 1902, 1903, 1904, 1905, 1906, 1907, 1908
 1909, 1910, 1911, 1912, 1913, 1914, 1915, 1916, 1917, 1918, 1919, 1920, 1921, 1922, 1923, 1924
 1925, 1926, 1927, 1928, 1929, 1930, 1931, 1932, 1933, 1934, 1935, 1936, 1937, 1938, 1939, 1940
 1941, 1942, 1943, 1944, 1945, 1946, 1947, 1948, 1949, 1950, 1951, 1952, 1953, 1954, 1955, 1956
 1957, 1958, 1959, 1960, 1961, 1962, 1963, 1964, 1965, 1966, 1967, 1968, 1969, 1970, 1971, 1972
 1973, 1974, 1975, 1976, 1977, 1978, 1979, 1980, 1981, 1982, 1983, 1984, 1985, 1986, 1987, 1988
 1989, 1990, 1991, 1992, 1993, 1994, 1995, 1996, 1997, 1998, 1999, 2000, 2001, 2002, 2003, 2004
 2005, 2006, 2007, 2008, 2009, 2010, 2011, 2012, 2013, 2014, 2015, 2016, 2017, 2018, 2019, 2020
 2021, 2022, 2023, 2024, 2025, 2026, 2027, 2028, 2029, 2030, 2031, 2032, 2033, 2034, 2130, 2131
 2132, 2133, 2134, 2135, 2136, 2137, 2138, 2139, 2140, 2141, 2142, 2143, 2144, 2145, 2146, 2147
 2148, 2169, 2170, 2171, 2172
*Nset, nset=YSymm
   2,   3,   4,   6,   7,   8,   9,  10,  11,  12,  13,  14,  15,  16,  17,  18
  19,  20,  21,  22,  23,  58,  59,  60,  61,  62,  63,  64,  65,  66,  67,  68
  69,  70,  71,  72,  73,  74,  75,  76,  77,  78,  79,  80,  81,  82,  83,  84
  85,  86, 276, 277, 278, 279, 280, 281, 282, 283, 284, 285, 286, 287, 288, 289
 290, 291, 292, 293, 294, 295, 296, 297, 298, 299, 300, 301, 302, 303, 304, 305
 306, 307, 308, 309, 310, 311, 312, 313, 314, 315, 316, 317, 318, 319, 320, 321
 322, 323, 324, 325, 326, 327, 328, 329, 330, 331, 332, 333, 334, 335, 336, 337
 338, 339, 340, 341, 342, 343, 344, 345, 346, 347, 348, 349, 350, 351, 352, 353
 354, 355, 356, 357, 358, 359, 360, 361, 362, 363, 364, 365, 366, 367, 368, 369
 370, 371, 372, 373, 374, 375, 376, 377, 378, 379, 380, 381, 382, 383, 384, 385
 386, 387, 388, 389, 390, 391, 392, 393, 394, 395, 396, 397, 398, 399, 400, 401
 402, 403, 404, 405, 406, 407, 408, 409, 410, 411, 412, 413, 414, 415, 416, 417
 418, 419, 420, 421, 422, 423, 424, 425, 426, 427, 428, 429, 430
*Elset, elset=YSymm
  791,  792,  793,  794,  795,  796,  797,  798,  799,  800,  801,  802,  803,  804,  805,  806
  807,  808,  809,  810,  811,  812,  813,  814,  815,  816,  817,  818,  819,  820,  821,  822
  823,  824,  825,  826,  827,  828,  829,  830,  831,  832,  833,  834,  835,  836,  837,  838
  839,  840,  841,  842,  843,  844,  845,  846,  847,  848,  849,  850,  851,  852,  853,  854
  855,  856,  857,  858,  859,  860,  861,  862,  863,  864,  865,  866,  867,  868,  869,  870
  871,  872,  873,  874,  875,  876,  877,  878,  879,  880,  881,  882,  883,  884,  885,  886
  887,  888,  889,  890,  891,  892,  893,  894,  895,  896,  897,  898,  899,  900,  901,  902
  903,  904,  905,  906,  907,  908,  909,  910,  911,  912,  913,  914,  915,  916,  917,  918
  919,  920,  921,  922,  923,  924,  925,  926,  927,  928,  929,  930,  931,  932,  933,  934
  935,  936,  937,  938,  939,  940,  941,  942,  943,  944,  945,  946,  947,  948, 1044, 1045
 1046, 1047, 1048, 1049, 1050, 1051, 1052, 1053, 1054, 1055, 1056, 1057, 1058, 1059, 1060, 1061
 1062, 1083, 1084, 1085, 1086
** Region: (Projectile:Set-4), (Controls:EC-2)
*Elset, elset=_I1, internal
    1,    2,    3,    4,    5,    6,    7,    8,    9,   10,   11,   12,   13,   14,   15,   16
   17,   18,   19,   20,   21,   22,   23,   24,   25,   26,   27,   28,   29,   30,   31,   32
   33,   34,   35,   36,   37,   38,   39,   40,   41,   42,   43,   44,   45,   46,   47,   48
   49,   50,   51,   52,   53,   54,   55,   56,   57,   58,   59,   60,   61,   62,   63,   64
   65,   66,   67,   68,   69,   70,   71,   72,   73,   74,   75,   76,   77,   78,   79,   80
   81,   82,   83,   84,   85,   86,   87,   88,   89,   90,   91,   92,   93,   94,   95,   96
   97,   98,   99,  100,  101,  102,  103,  104,  105,  106,  107,  108,  109,  110,  111,  112
  113,  114,  115,  116,  117,  118,  119,  120,  121,  122,  123,  124,  125,  126,  127,  128
  129,  130,  131,  132,  133,  134,  135,  136,  137,  138,  139,  140,  141,  142,  143,  144
  145,  146,  147,  148,  149,  150,  151,  152,  153,  154,  155,  156,  157,  158,  159,  160
  161,  162,  163,  164,  165,  166,  167,  168,  169,  170,  171,  172,  173,  174,  175,  176
  177,  178,  179,  180,  181,  182,  183,  184,  185,  186,  187,  188,  189,  190,  191,  192
  193,  194,  195,  196,  197,  198,  199,  200,  201,  202,  203,  204,  205,  206,  207,  208
  209,  210,  211,  212,  213,  214,  215,  216,  217,  218,  219,  220,  221,  222,  223,  224
  225,  226,  227,  228,  229,  230,  231,  232,  233,  234,  235,  236,  237,  238,  239,  240
  241,  242,  243,  244,  245,  246,  247,  248,  249,  250,  251,  252,  253,  254,  255,  256
  257,  258,  259,  260,  261,  262,  263,  264,  265,  266,  267,  268,  269,  270,  271,  272
  273,  274,  275,  276,  277,  278,  279,  280,  281,  282,  283,  284,  285,  286,  287,  288
  289,  290,  291,  292,  293,  294,  295,  296,  297,  298,  299,  300,  301,  302,  303,  304
  305,  306,  307,  308,  309,  310,  311,  312,  313,  314,  315,  316,  317,  318,  319,  320
** ... 99 like lines cut
** Section: Projectile
*Solid Section, elset=_I1, controls=EC-2, material=M50_ToolSteel
,
** Region: (Projectile:Set-4), (Controls:Default)
*Elset, elset=_I2, internal
  949,  950,  951,  952,  953,  954,  955,  956,  957,  958,  959,  960,  961,  962,  963,  964
  965,  966,  967,  968,  969,  970,  971,  972,  973,  974,  975,  976,  977,  978,  979,  980
  981,  982,  983,  984,  985,  986,  987,  988,  989,  990,  991,  992,  993,  994,  995,  996
  997,  998,  999, 1000, 1001, 1002, 1003, 1004, 1005, 1006, 1007, 1008, 1009, 1010, 1011, 1012
 1013, 1014, 1015, 1016, 1017, 1018, 1019, 1020, 1021, 1022, 1023, 1024, 1025, 1026, 1027, 1028
 1029, 1030, 1031, 1032, 1033, 1034, 1035, 1036, 1037, 1038, 1039, 1040, 1041, 1042, 1043, 1044
 1045, 1046, 1047, 1048, 1049, 1050, 1051, 1052, 1053, 1054, 1055, 1056, 1057, 1058, 1059, 1060
 1061, 1062, 1063, 1064, 1065, 1066, 1067, 1068, 1069, 1070, 1071, 1072, 1073, 1074, 1075, 1076
 1077, 1078, 1079, 1080, 1081, 1082, 1083, 1084, 1085, 1086, 2035, 2036, 2037, 2038, 2039, 2040
 2041, 2042, 2043, 2044, 2045, 2046, 2047, 2048, 2049, 2050, 2051, 2052, 2053, 2054, 2055, 2056
 2057, 2058, 2059, 2060, 2061, 2062, 2063, 2064, 2065, 2066, 2067, 2068, 2069, 2070, 2071, 2072
 2073, 2074, 2075, 2076, 2077, 2078, 2079, 2080, 2081, 2082, 2083, 2084, 2085, 2086, 2087, 2088
 2089, 2090, 2091, 2092, 2093, 2094, 2095, 2096, 2097, 2098, 2099, 2100, 2101, 2102, 2103, 2104
 2105, 2106, 2107, 2108, 2109, 2110, 2111, 2112, 2113, 2114, 2115, 2116, 2117, 2118, 2119, 2120
 2121, 2122, 2123, 2124, 2125, 2126, 2127, 2128, 2129, 2130, 2131, 2132, 2133, 2134, 2135, 2136
 2137, 2138, 2139, 2140, 2141, 2142, 2143, 2144, 2145, 2146, 2147, 2148, 2149, 2150, 2151, 2152
 2153, 2154, 2155, 2156, 2157, 2158, 2159, 2160, 2161, 2162, 2163, 2164, 2165, 2166, 2167, 2168
 2169, 2170, 2171, 2172
** Section: Projectile
*Solid Section, elset=_I2, material=M50_ToolSteel
,
*End Part
**  
*Part, name=TargetPlate
*Node
      1, -0.0888999999,           0.,           0.
      2,           0., 0.0888999999,           0.
      3,           0., 0.0250000004,           0.
      4, -0.0250000004,           0.,           0.
      5, -0.0723788291, 0.0516189449, 0.00634999992
      6,           0., 0.0888999999, 0.00634999992
      7,           0., 0.0250000004, 0.00634999992
      8, -0.0250000004,           0., 0.00634999992
      9, -0.0238605402, 0.00746154366, 0.00634999992
     10, -0.0888999999,           0., 0.00634999992
     11,           0.,           0.,           0.
     12,           0.,           0., 0.00634999992
     13, -0.101599999,           0.,           0.
     14,           0.,  0.101599999,           0.
     15, -0.101599999,           0., 0.00634999992
     16,           0.,  0.101599999, 0.00634999992
     17, -0.0887096599, 0.0058143381,           0.
     18, -0.0881394446, 0.0116037782,           0.
     19, -0.0871918127, 0.0173435304,           0.
     20, -0.0858708024, 0.0230090134,           0.
** ... 24396 like lines cut
*Element, type=C3D8R
   1,   214,  1995,  6129,  1491,     1,    17,   525,   104
   2,  1995,  1996,  6130,  6129,    17,    18,   526,   525
   3,  1996,  1997,  6131,  6130,    18,    19,   527,   526
   4,  1997,  1998,  6132,  6131,    19,    20,   528,   527
   5,  1998,  1999,  6133,  6132,    20,    21,   529,   528
   6,  1999,  2000,  6134,  6133,    21,    22,   530,   529
   7,  2000,  2001,  6135,  6134,    22,    23,   531,   530
   8,  2001,  2002,  6136,  6135,    23,    24,   532,   531
   9,  2002,  2003,  6137,  6136,    24,    25,   533,   532
  10,  2003,  2004,  6138,  6137,    25,    26,   534,   533
  11,  2004,  2005,  6139,  6138,    26,    27,   535,   534
  12,  2005,  2006,  6140,  6139,    27,    28,   536,   535
  13,  2006,  2007,  6141,  6140,    28,    29,   537,   536
  14,  2007,  2008,  6142,  6141,    29,    30,   538,   537
  15,  2008,  2009,  6143,  6142,    30,    31,   539,   538
  16,  2009,  2010,  6144,  6143,    31,    32,   540,   539
  17,  2010,  2011,  6145,  6144,    32,    33,   541,   540
  18,  2011,  2012,  6146,  6145,    33,    34,   542,   541
  19,  2012,  2013,  6147,  6146,    34,    35,   543,   542
  20,  2013,  2014,  6148,  6147,    35,    36,   544,   543
** ... 21508 like lines cut
*Nset, nset=_PickedSet103, internal, generate
     1,  24416,      1
*Elset, elset=_PickedSet103, internal, generate
     1,  21528,      1
*Nset, nset=XSymm
    2,    3,    6,    7,   11,   12,   14,   16,   40,   41,   42,   43,   44,   45,   46,   47
   48,   49,   50,   51,   52,   53,   54,   55,   56,   57,   58,   59,   60,  127,  128,  129
  130,  131,  132,  133,  134,  135,  136,  137,  138,  139,  140,  141,  142,  143,  144,  145
  146,  147,  215,  216,  217,  218,  219,  220,  221,  222,  223,  224,  225,  226,  227,  228
  229,  230,  231,  232,  233,  234,  235,  236,  237,  238,  288,  289,  290,  291,  292,  293
  294,  295,  296,  297,  298,  299,  300,  301,  302,  303,  304,  305,  306,  307,  308,  309
  310,  311,  312,  313,  314,  315,  316,  317,  318,  319,  320,  321,  322,  323,  324,  325
  326,  327,  328,  329,  330,  331,  332,  333,  334,  335,  336,  337,  338,  339,  340,  341
  342,  343,  344,  345,  346,  347,  348,  349,  350,  351,  352,  353,  354,  355,  356,  357
  358,  359,  360,  361,  362,  363,  364,  365,  366,  367,  368,  369,  370,  371,  372,  373
  374,  375,  376,  377,  378,  379,  380,  381,  382,  383,  384,  385,  386,  387,  388,  389
  390,  391,  392,  393,  394,  395,  396,  397,  472,  473,  499,  500,  501,  502,  503,  504
  505,  506,  507,  508,  509,  510,  511,  512, 1743, 1744, 1745, 1746, 1747, 1748, 1749, 1750
 1751, 1752, 1753, 1754, 1755, 1756, 1757, 1758, 1759, 1760, 1761, 1762, 1763, 1764, 1765, 1766
 1767, 1768, 1769, 1770, 1771, 1772, 1773, 1774, 1775, 1776, 1777, 1778, 1779, 1780, 1781, 1782
 1783, 1784, 1785, 1786, 1787, 1788, 1789, 1790, 1791, 1792, 1793, 1794, 1795, 1796, 1797, 1798
 1799, 1800, 1801, 1802, 1803, 1804, 1805, 1806, 1807, 1808, 1809, 1810, 1811, 1812, 1813, 1814
 1815, 1816, 1817, 1818, 1819, 1820, 1821, 1822, 1823, 1824, 1825, 1826, 1827, 1828, 1829, 1830
 1831, 1832, 1833, 1834, 1835, 1836, 1837, 1838, 1839, 1840, 1841, 1842, 1843, 1844, 1845, 1846
 1847, 1848, 1849, 1850, 1851, 1852, 1853, 1854, 1855, 1856, 1857, 1858, 1859, 1860, 1861, 1862
** ... 47 like lines cut
*Elset, elset=XSymm
    24,    48,    72,    96,   120,   144,   168,   192,   216,   240,   264,   288,   312,   336,   360,   384
   408,   432,   456,   480,   504,   528,   552,   576,   600,   624,   648,   672,   696,   720,   744,   768
   792,   816,   840,   864,   888,   912,   936,   960,   984,  1008,  1032,  1056,  1080,  1104,  1128,  1152
  1176,  1200,  1224,  1248,  1272,  1296,  1320,  1344,  1368,  1392,  1416,  1440,  1464,  1488,  1512,  1536
  1560,  1584,  1608,  1632,  1656,  1680,  1704,  1728,  1752,  1776,  1800,  1824,  1848,  1872,  1896,  1920
  1944,  1968,  1992,  2016,  2040,  2064,  2088,  2112,  2136,  2160,  2184,  2208,  2232,  2256,  2280,  2304
  2328,  2352,  2376,  2400,  2424,  2448,  2472,  2496,  2520,  2544,  2568,  2592,  2616,  2640,  2664,  2688
  2712,  2736,  2760,  2784,  2808,  2832,  2856,  2880,  2904,  2928,  2952,  2976,  3000,  3024,  3048,  3072
  3096,  3120,  3144,  3168,  3192,  3216,  3240,  3264,  3288,  3312,  3336,  3360,  3384,  3408,  3432,  3456
  3480,  3504,  3528,  3552,  3576,  3600,  3624,  3648,  3672,  3696,  3720,  3744,  3768,  3792,  3816,  3840
  3864,  3888,  3912,  3936,  3960,  3984,  4008,  4032,  4056,  4080,  4104,  4128,  4152,  4176,  4200,  4224
  4248,  4272,  4296,  4320,  4344,  4368,  4392,  4416,  4440,  4464,  4488,  4512,  4536,  4560,  4584,  4608
  4632,  4656,  4680,  4704,  4728,  4752,  4776,  4800,  4824,  4848,  4872,  4896,  4920,  4944,  4968,  4992
  5016,  5040,  5064,  5088,  5112,  5136,  5160,  5184,  5208,  5232,  5256,  5280,  5304,  5328,  5352,  5376
  5400,  5424,  5448,  5472,  5496,  5520,  5544,  5568,  5592,  5616,  5640,  5664,  5688,  5712,  5736,  5760
  5784,  5808,  5832,  5856,  5880,  5904,  5928,  5952,  5976,  6000,  6024,  6048,  6072,  6096,  6120,  6144
  6168,  6192,  6216,  6240,  6264,  6288,  6312,  6336,  6360,  6384,  6408,  6432,  6456,  6480,  6504,  6528
  6552,  6576,  6600,  6624,  6648,  6672,  6696,  6720,  6744,  6768,  6792,  6816,  6840,  6864,  9612,  9624
  9636,  9648,  9660,  9672,  9684,  9696,  9708,  9720,  9732,  9744,  9756,  9768,  9780,  9792,  9804,  9816
  9828,  9840,  9852,  9864,  9876,  9888,  9900,  9912,  9924,  9936,  9948,  9960,  9972,  9984,  9996, 10008
** ... 41 like lines cut
*Nset, nset=YSymm
    1,    4,    8,   10,   11,   12,   13,   15,   84,   85,   86,   87,   88,   89,   90,   91
   92,   93,   94,   95,   96,   97,   98,   99,  100,  101,  102,  103,  104,  170,  171,  172
  173,  174,  175,  176,  177,  178,  179,  180,  181,  182,  183,  184,  185,  186,  187,  188
  189,  190,  191,  192,  193,  194,  195,  196,  197,  198,  199,  200,  201,  202,  203,  204
  205,  206,  207,  208,  209,  210,  211,  212,  213,  214,  239,  240,  241,  242,  243,  244
  245,  246,  247,  248,  249,  250,  251,  252,  253,  254,  255,  256,  257,  258,  259,  260
  261,  262,  263,  264,  265,  266,  267,  268,  269,  270,  271,  272,  273,  274,  275,  276
  277,  278,  279,  280,  281,  282,  283,  284,  285,  286,  287,  337,  338,  339,  340,  341
  342,  343,  344,  345,  346,  347,  348,  398,  399,  400,  401,  402,  403,  404,  405,  406
  407,  408,  409,  410,  411,  412,  413,  414,  415,  416,  417,  418,  419,  420,  421,  422
  423,  424,  425,  426,  427,  428,  429,  430,  431,  432,  433,  434,  435,  436,  437,  438
  439,  440,  441,  442,  443,  444,  445,  446,  447,  448,  474,  475,  513,  514,  515,  516
  517,  518,  519,  520,  521,  522,  523,  524, 1491, 1492, 1493, 1494, 1495, 1496, 1497, 1498
 1499, 1500, 1501, 1502, 1503, 1504, 1505, 1506, 1507, 1508, 1509, 1510, 1511, 1512, 1513, 1514
 1515, 1516, 1517, 1518, 1519, 1520, 1521, 1522, 1523, 1524, 1525, 1526, 1527, 1528, 1529, 1530
 1531, 1532, 1533, 1534, 1535, 1536, 1537, 1538, 1539, 1540, 1541, 1542, 1543, 1544, 1545, 1546
 1547, 1548, 1549, 1550, 1551, 1552, 1553, 1554, 1555, 1556, 1557, 1558, 1559, 1560, 1561, 1562
 1563, 1564, 1565, 1566, 1567, 1568, 1569, 1570, 1571, 1572, 1573, 1574, 1575, 1576, 1577, 1578
 1579, 1580, 1581, 1582, 1583, 1584, 1585, 1586, 1587, 1588, 1589, 1590, 1591, 1592, 1593, 1594
 1595, 1596, 1597, 1598, 1599, 1600, 1601, 1602, 1603, 1604, 1605, 1606, 1607, 1608, 1609, 1610
** ... 47 like lines cut
*Elset, elset=YSymm
     1,    25,    49,    73,    97,   121,   145,   169,   193,   217,   241,   265,   289,   313,   337,   361
   385,   409,   433,   457,   481,   505,   529,   553,   577,   601,   625,   649,   673,   697,   721,   745
   769,   793,   817,   841,   865,   889,   913,   937,   961,   985,  1009,  1033,  1057,  1081,  1105,  1129
  1153,  1177,  1201,  1225,  1249,  1273,  1297,  1321,  1345,  1369,  1393,  1417,  1441,  1465,  1489,  1513
  1537,  1561,  1585,  1609,  1633,  1657,  1681,  1705,  1729,  1753,  1777,  1801,  1825,  1849,  1873,  1897
  1921,  1945,  1969,  1993,  2017,  2041,  2065,  2089,  2113,  2137,  2161,  2185,  2209,  2233,  2257,  2281
  2305,  2329,  2353,  2377,  2401,  2425,  2449,  2473,  2497,  2521,  2545,  2569,  2593,  2617,  2641,  2665
  2689,  2713,  2737,  2761,  2785,  2809,  2833,  2857,  2881,  2905,  2929,  2953,  2977,  3001,  3025,  3049
  3073,  3097,  3121,  3145,  3169,  3193,  3217,  3241,  3265,  3289,  3313,  3337,  3361,  3385,  3409,  3433
  3457,  3481,  3505,  3529,  3553,  3577,  3601,  3625,  3649,  3673,  3697,  3721,  3745,  3769,  3793,  3817
  3841,  3865,  3889,  3913,  3937,  3961,  3985,  4009,  4033,  4057,  4081,  4105,  4129,  4153,  4177,  4201
  4225,  4249,  4273,  4297,  4321,  4345,  4369,  4393,  4417,  4441,  4465,  4489,  4513,  4537,  4561,  4585
  4609,  4633,  4657,  4681,  4705,  4729,  4753,  4777,  4801,  4825,  4849,  4873,  4897,  4921,  4945,  4969
  4993,  5017,  5041,  5065,  5089,  5113,  5137,  5161,  5185,  5209,  5233,  5257,  5281,  5305,  5329,  5353
  5377,  5401,  5425,  5449,  5473,  5497,  5521,  5545,  5569,  5593,  5617,  5641,  5665,  5689,  5713,  5737
  5761,  5785,  5809,  5833,  5857,  5881,  5905,  5929,  5953,  5977,  6001,  6025,  6049,  6073,  6097,  6121
  6145,  6169,  6193,  6217,  6241,  6265,  6289,  6313,  6337,  6361,  6385,  6409,  6433,  6457,  6481,  6505
  6529,  6553,  6577,  6601,  6625,  6649,  6673,  6697,  6721,  6745,  6769,  6793,  6817,  6841,  6865,  6866
  6867,  6868,  6869,  6870,  6871,  6872,  6873,  6874,  6875,  6876,  6877,  6878,  6879,  6880,  6881,  6882
  6883,  6884,  6885,  6886,  6887,  6888,  6889,  6890,  6891,  6892,  6893,  6894,  6895,  6896,  6897,  6898
** ... 41 like lines cut
*Elset, elset=_FrontFace_S1, internal
  6337,  6338,  6339,  6340,  6341,  6342,  6343,  6344,  6345,  6346,  6347,  6348,  6349,  6350,  6351,  6352
  6353,  6354,  6355,  6356,  6357,  6358,  6359,  6360,  6361,  6362,  6363,  6364,  6365,  6366,  6367,  6368
  6369,  6370,  6371,  6372,  6373,  6374,  6375,  6376,  6377,  6378,  6379,  6380,  6381,  6382,  6383,  6384
  6385,  6386,  6387,  6388,  6389,  6390,  6391,  6392,  6393,  6394,  6395,  6396,  6397,  6398,  6399,  6400
  6401,  6402,  6403,  6404,  6405,  6406,  6407,  6408,  6409,  6410,  6411,  6412,  6413,  6414,  6415,  6416
  6417,  6418,  6419,  6420,  6421,  6422,  6423,  6424,  6425,  6426,  6427,  6428,  6429,  6430,  6431,  6432
  6433,  6434,  6435,  6436,  6437,  6438,  6439,  6440,  6441,  6442,  6443,  6444,  6445,  6446,  6447,  6448
  6449,  6450,  6451,  6452,  6453,  6454,  6455,  6456,  6457,  6458,  6459,  6460,  6461,  6462,  6463,  6464
  6465,  6466,  6467,  6468,  6469,  6470,  6471,  6472,  6473,  6474,  6475,  6476,  6477,  6478,  6479,  6480
  6481,  6482,  6483,  6484,  6485,  6486,  6487,  6488,  6489,  6490,  6491,  6492,  6493,  6494,  6495,  6496
  6497,  6498,  6499,  6500,  6501,  6502,  6503,  6504,  6505,  6506,  6507,  6508,  6509,  6510,  6511,  6512
  6513,  6514,  6515,  6516,  6517,  6518,  6519,  6520,  6521,  6522,  6523,  6524,  6525,  6526,  6527,  6528
  6529,  6530,  6531,  6532,  6533,  6534,  6535,  6536,  6537,  6538,  6539,  6540,  6541,  6542,  6543,  6544
  6545,  6546,  6547,  6548,  6549,  6550,  6551,  6552,  6553,  6554,  6555,  6556,  6557,  6558,  6559,  6560
  6561,  6562,  6563,  6564,  6565,  6566,  6567,  6568,  6569,  6570,  6571,  6572,  6573,  6574,  6575,  6576
  6577,  6578,  6579,  6580,  6581,  6582,  6583,  6584,  6585,  6586,  6587,  6588,  6589,  6590,  6591,  6592
  6593,  6594,  6595,  6596,  6597,  6598,  6599,  6600,  6601,  6602,  6603,  6604,  6605,  6606,  6607,  6608
  6609,  6610,  6611,  6612,  6613,  6614,  6615,  6616,  6617,  6618,  6619,  6620,  6621,  6622,  6623,  6624
  6625,  6626,  6627,  6628,  6629,  6630,  6631,  6632,  6633,  6634,  6635,  6636,  6637,  6638,  6639,  6640
  6641,  6642,  6643,  6644,  6645,  6646,  6647,  6648,  6649,  6650,  6651,  6652,  6653,  6654,  6655,  6656
** ... 18 like lines cut
*Elset, elset=_FrontFace_S3, internal
 13201, 13202, 13203, 13204, 13205, 13206, 13207, 13208, 13209, 13210, 13211, 13212, 13285, 13286, 13287, 13288
 13289, 13290, 13291, 13292, 13293, 13294, 13295, 13296, 13369, 13370, 13371, 13372, 13373, 13374, 13375, 13376
 13377, 13378, 13379, 13380, 13453, 13454, 13455, 13456, 13457, 13458, 13459, 13460, 13461, 13462, 13463, 13464
 13537, 13538, 13539, 13540, 13541, 13542, 13543, 13544, 13545, 13546, 13547, 13548, 13621, 13622, 13623, 13624
 13625, 13626, 13627, 13628, 13629, 13630, 13631, 13632, 13705, 13706, 13707, 13708, 13709, 13710, 13711, 13712
 13713, 13714, 13715, 13716, 13789, 13790, 13791, 13792, 13793, 13794, 13795, 13796, 13797, 13798, 13799, 13800
 13873, 13874, 13875, 13876, 13877, 13878, 13879, 13880, 13881, 13882, 13883, 13884, 13957, 13958, 13959, 13960
 13961, 13962, 13963, 13964, 13965, 13966, 13967, 13968, 14041, 14042, 14043, 14044, 14045, 14046, 14047, 14048
 14049, 14050, 14051, 14052, 14125, 14126, 14127, 14128, 14129, 14130, 14131, 14132, 14133, 14134, 14135, 14136
 14209, 14210, 14211, 14212, 14213, 14214, 14215, 14216, 14217, 14218, 14219, 14220, 14293, 14294, 14295, 14296
 14297, 14298, 14299, 14300, 14301, 14302, 14303, 14304, 14377, 14378, 14379, 14380, 14381, 14382, 14383, 14384
 14385, 14386, 14387, 14388, 14461, 14462, 14463, 14464, 14465, 14466, 14467, 14468, 14469, 14470, 14471, 14472
 14545, 14546, 14547, 14548, 14549, 14550, 14551, 14552, 14553, 14554, 14555, 14556, 14629, 14630, 14631, 14632
 14633, 14634, 14635, 14636, 14637, 14638, 14639, 14640, 14713, 14714, 14715, 14716, 14717, 14718, 14719, 14720
 14721, 14722, 14723, 14724, 14797, 14798, 14799, 14800, 14801, 14802, 14803, 14804, 14805, 14806, 14807, 14808
 14881, 14882, 14883, 14884, 14885, 14886, 14887, 14888, 14889, 14890, 14891, 14892, 14965, 14966, 14967, 14968
 14969, 14970, 14971, 14972, 14973, 14974, 14975, 14976, 15049, 15050, 15051, 15052, 15053, 15054, 15055, 15056
 15057, 15058, 15059, 15060, 15133, 15134, 15135, 15136, 15137, 15138, 15139, 15140, 15141, 15142, 15143, 15144
 15217, 15218, 15219, 15220, 15221, 15222, 15223, 15224, 15225, 15226, 15227, 15228, 15301, 15302, 15303, 15304
 15305, 15306, 15307, 15308, 15309, 15310, 15311, 15312, 15385, 15386, 15387, 15388, 15389, 15390, 15391, 15392
** ... 18 like lines cut
*Elset, elset=_FrontFace_S4, internal, generate
 16399,  19584,      7
*Surface, type=ELEMENT, name=FrontFace
_FrontFace_S1, S1
_FrontFace_S3, S3
_FrontFace_S4, S4
*Elset, elset=_BackFace_S2, internal
     1,     2,     3,     4,     5,     6,     7,     8,     9,    10,    11,    12,    13,    14,    15,    16
    17,    18,    19,    20,    21,    22,    23,    24,    25,    26,    27,    28,    29,    30,    31,    32
    33,    34,    35,    36,    37,    38,    39,    40,    41,    42,    43,    44,    45,    46,    47,    48
    49,    50,    51,    52,    53,    54,    55,    56,    57,    58,    59,    60,    61,    62,    63,    64
    65,    66,    67,    68,    69,    70,    71,    72,    73,    74,    75,    76,    77,    78,    79,    80
    81,    82,    83,    84,    85,    86,    87,    88,    89,    90,    91,    92,    93,    94,    95,    96
    97,    98,    99,   100,   101,   102,   103,   104,   105,   106,   107,   108,   109,   110,   111,   112
   113,   114,   115,   116,   117,   118,   119,   120,   121,   122,   123,   124,   125,   126,   127,   128
   129,   130,   131,   132,   133,   134,   135,   136,   137,   138,   139,   140,   141,   142,   143,   144
   145,   146,   147,   148,   149,   150,   151,   152,   153,   154,   155,   156,   157,   158,   159,   160
   161,   162,   163,   164,   165,   166,   167,   168,   169,   170,   171,   172,   173,   174,   175,   176
   177,   178,   179,   180,   181,   182,   183,   184,   185,   186,   187,   188,   189,   190,   191,   192
   193,   194,   195,   196,   197,   198,   199,   200,   201,   202,   203,   204,   205,   206,   207,   208
   209,   210,   211,   212,   213,   214,   215,   216,   217,   218,   219,   220,   221,   222,   223,   224
   225,   226,   227,   228,   229,   230,   231,   232,   233,   234,   235,   236,   237,   238,   239,   240
   241,   242,   243,   244,   245,   246,   247,   248,   249,   250,   251,   252,   253,   254,   255,   256
   257,   258,   259,   260,   261,   262,   263,   264,   265,   266,   267,   268,   269,   270,   271,   272
   273,   274,   275,   276,   277,   278,   279,   280,   281,   282,   283,   284,   285,   286,   287,   288
   289,   290,   291,   292,   293,   294,   295,   296,   297,   298,   299,   300,   301,   302,   303,   304
   305,   306,   307,   308,   309,   310,   311,   312,   313,   314,   315,   316,   317,   318,   319,   320
** ... 84 like lines cut
*Surface, type=ELEMENT, name=BackFace
_BackFace_S2, S2
*Orientation, name=Ori-1
1., 0., 0., 0., 1., 0.
1, 0.
** Section: Matrix
*Solid Section, elset=_PickedSet103, orientation=Ori-1, controls=EC-1, material=Matrix_Utomo-Isotropic
,
*End Part
**  
**
** ASSEMBLY
**
*Assembly, name=Assembly
**  
*Instance, name=TargetPlate-1, part=TargetPlate
*End Instance
**  
*Instance, name=SteelProjectile-1, part=SteelProjectile
          0.,           0.,     0.011213
          0.,           0.,     0.011213, -0.577350279552042, -0.577350279552042, 0.588563279552042, 119.999999109416
*End Instance
**  
*Nset, nset=AllOutside, instance=TargetPlate-1
    1,    2,    3,    4,    5,    6,    7,    8,    9,   10,   11,   12,   13,   14,   15,   16
   17,   18,   19,   20,   21,   22,   23,   24,   25,   26,   27,   28,   29,   30,   31,   32
   33,   34,   35,   36,   37,   38,   39,   40,   41,   42,   43,   44,   45,   46,   47,   48
   49,   50,   51,   52,   53,   54,   55,   56,   57,   58,   59,   60,   61,   62,   63,   64
   65,   66,   67,   68,   69,   70,   71,   72,   73,   74,   75,   76,   77,   78,   79,   80
   81,   82,   83,   84,   85,   86,   87,   88,   89,   90,   91,   92,   93,   94,   95,   96
   97,   98,   99,  100,  101,  102,  103,  104,  105,  106,  107,  108,  109,  110,  111,  112
  113,  114,  115,  116,  117,  118,  119,  120,  121,  122,  123,  124,  125,  126,  127,  128
  129,  130,  131,  132,  133,  134,  135,  136,  137,  138,  139,  140,  141,  142,  143,  144
  145,  146,  147,  148,  149,  150,  151,  152,  153,  154,  155,  156,  157,  158,  159,  160
  161,  162,  163,  164,  165,  166,  167,  168,  169,  170,  171,  172,  173,  174,  175,  176
  177,  178,  179,  180,  181,  182,  183,  184,  185,  186,  187,  188,  189,  190,  191,  192
  193,  194,  195,  196,  197,  198,  199,  200,  201,  202,  203,  204,  205,  206,  207,  208
  209,  210,  211,  212,  213,  214,  215,  216,  217,  218,  219,  220,  221,  222,  223,  224
  225,  226,  227,  228,  229,  230,  231,  232,  233,  234,  235,  236,  237,  238,  239,  240
  241,  242,  243,  244,  245,  246,  247,  248,  249,  250,  251,  252,  253,  254,  255,  256
  257,  258,  259,  260,  261,  262,  263,  264,  265,  266,  267,  268,  269,  270,  271,  272
  273,  274,  275,  276,  277,  278,  279,  280,  281,  282,  283,  284,  285,  286,  287,  288
  289,  290,  291,  292,  293,  294,  295,  296,  297,  298,  299,  300,  301,  302,  303,  304
  305,  306,  307,  308,  309,  310,  311,  312,  313,  314,  315,  316,  317,  318,  319,  320
** ... 329 like lines cut
*Elset, elset=AllOutside, instance=TargetPlate-1
     1,     2,     3,     4,     5,     6,     7,     8,     9,    10,    11,    12,    13,    14,    15,    16
    17,    18,    19,    20,    21,    22,    23,    24,    25,    26,    27,    28,    29,    30,    31,    32
    33,    34,    35,    36,    37,    38,    39,    40,    41,    42,    43,    44,    45,    46,    47,    48
    49,    50,    51,    52,    53,    54,    55,    56,    57,    58,    59,    60,    61,    62,    63,    64
    65,    66,    67,    68,    69,    70,    71,    72,    73,    74,    75,    76,    77,    78,    79,    80
    81,    82,    83,    84,    85,    86,    87,    88,    89,    90,    91,    92,    93,    94,    95,    96
    97,    98,    99,   100,   101,   102,   103,   104,   105,   106,   107,   108,   109,   110,   111,   112
   113,   114,   115,   116,   117,   118,   119,   120,   121,   122,   123,   124,   125,   126,   127,   128
   129,   130,   131,   132,   133,   134,   135,   136,   137,   138,   139,   140,   141,   142,   143,   144
   145,   146,   147,   148,   149,   150,   151,   152,   153,   154,   155,   156,   157,   158,   159,   160
   161,   162,   163,   164,   165,   166,   167,   168,   169,   170,   171,   172,   173,   174,   175,   176
   177,   178,   179,   180,   181,   182,   183,   184,   185,   186,   187,   188,   189,   190,   191,   192
   193,   194,   195,   196,   197,   198,   199,   200,   201,   202,   203,   204,   205,   206,   207,   208
   209,   210,   211,   212,   213,   214,   215,   216,   217,   218,   219,   220,   221,   222,   223,   224
   225,   226,   227,   228,   229,   230,   231,   232,   233,   234,   235,   236,   237,   238,   239,   240
   241,   242,   243,   244,   245,   246,   247,   248,   249,   250,   251,   252,   253,   254,   255,   256
   257,   258,   259,   260,   261,   262,   263,   264,   265,   266,   267,   268,   269,   270,   271,   272
   273,   274,   275,   276,   277,   278,   279,   280,   281,   282,   283,   284,   285,   286,   287,   288
   289,   290,   291,   292,   293,   294,   295,   296,   297,   298,   299,   300,   301,   302,   303,   304
   305,   306,   307,   308,   309,   310,   311,   312,   313,   314,   315,   316,   317,   318,   319,   320
** ... 305 like lines cut
*Nset, nset=Clamp, instance=TargetPlate-1
    1,    2,    5,    6,   10,   13,   14,   15,   16,   17,   18,   19,   20,   21,   22,   23
   24,   25,   26,   27,   28,   29,   30,   31,   32,   33,   34,   35,   36,   37,   38,   39
  105,  106,  107,  108,  109,  110,  111,  112,  113,  114,  115,  116,  117,  118,  119,  120
  121,  122,  123,  124,  125,  126,  447,  448,  449,  450,  451,  452,  453,  454,  455,  456
  457,  458,  459,  460,  461,  462,  463,  464,  465,  466,  467,  468,  469,  470,  471,  472
  473,  474,  475,  476,  477,  478,  479,  480,  481,  482,  483,  484,  485,  486,  487,  488
  489,  490,  491,  492,  493,  494,  495,  496,  497,  498,  499,  500, 5713, 5714, 5715, 5716
 5717, 5718, 5719, 5720, 5721, 5722, 5723, 5724, 5725, 5726, 5727, 5728, 5729, 5730, 5731, 5732
 5733, 5734, 5735, 5736, 5737, 5738, 5739, 5740, 5741, 5742, 5743, 5744, 5745, 5746, 5747, 5748
 5749, 5750, 5751, 5752, 5753, 5754, 5755, 5756, 5757, 5758, 5759, 5760, 5761, 5762, 5763, 5764
 5765, 5766, 5767, 5768, 5769, 5770, 5771, 5772, 5773, 5774, 5775, 5776, 5777, 5778, 5779, 5780
 5781, 5782, 5783, 5784, 5785, 5786, 5787, 5788, 5789, 5790, 5791, 5792, 5793, 5794, 5795, 5796
 5797, 5798, 5799, 5800, 5801, 5802, 5803, 5804
*Elset, elset=Clamp, instance=TargetPlate-1
 20593, 20594, 20595, 20596, 20597, 20598, 20599, 20600, 20601, 20602, 20603, 20604, 20605, 20606, 20607, 20608
 20609, 20610, 20611, 20612, 20613, 20614, 20615, 20616, 20617, 20618, 20619, 20620, 20621, 20622, 20623, 20624
 20625, 20626, 20627, 20628, 20629, 20630, 20631, 20632, 20633, 20634, 20635, 20636, 20637, 20638, 20639, 20640
 20641, 20642, 20643, 20644, 20645, 20646, 20647, 20648, 20649, 20650, 20651, 20652, 20653, 20654, 20655, 20656
 20657, 20658, 20659, 20660, 20661, 20662, 20663, 20664, 21457, 21458, 21459, 21460, 21461, 21462, 21463, 21464
 21465, 21466, 21467, 21468, 21469, 21470, 21471, 21472, 21473, 21474, 21475, 21476, 21477, 21478, 21479, 21480
 21481, 21482, 21483, 21484, 21485, 21486, 21487, 21488, 21489, 21490, 21491, 21492, 21493, 21494, 21495, 21496
 21497, 21498, 21499, 21500, 21501, 21502, 21503, 21504, 21505, 21506, 21507, 21508, 21509, 21510, 21511, 21512
 21513, 21514, 21515, 21516, 21517, 21518, 21519, 21520, 21521, 21522, 21523, 21524, 21525, 21526, 21527, 21528
*Nset, nset=HOST, instance=TargetPlate-1, generate
     1,  24416,      1
*Elset, elset=HOST, instance=TargetPlate-1, generate
     1,  21528,      1
*Nset, nset=Outside, instance=TargetPlate-1
    1,    2,    3,    4,   11,   13,   14,   15,   16,   17,   18,   19,   20,   21,   22,   23
   24,   25,   26,   27,   28,   29,   30,   31,   32,   33,   34,   35,   36,   37,   38,   39
   40,   41,   42,   43,   44,   45,   46,   47,   48,   49,   50,   51,   52,   53,   54,   55
   56,   57,   58,   59,   60,   61,   62,   63,   64,   65,   66,   67,   68,   69,   70,   71
   72,   73,   74,   75,   76,   77,   78,   79,   80,   81,   82,   83,   84,   85,   86,   87
   88,   89,   90,   91,   92,   93,   94,   95,   96,   97,   98,   99,  100,  101,  102,  103
  104,  239,  240,  241,  242,  243,  244,  245,  246,  247,  248,  249,  250,  251,  252,  253
  254,  255,  256,  257,  258,  259,  260,  261,  262,  263,  264,  265,  266,  267,  268,  269
  270,  271,  272,  273,  274,  275,  276,  277,  278,  279,  280,  281,  282,  283,  284,  285
  286,  287,  288,  289,  290,  291,  292,  293,  294,  295,  296,  297,  298,  299,  300,  301
  302,  303,  304,  305,  306,  307,  308,  309,  310,  311,  312,  313,  314,  315,  316,  317
  318,  319,  320,  321,  322,  323,  324,  325,  326,  327,  328,  329,  330,  331,  332,  333
  334,  335,  336,  447,  448,  449,  450,  451,  452,  453,  454,  455,  456,  457,  458,  459
  460,  461,  462,  463,  464,  465,  466,  467,  468,  469,  470,  471,  472,  473,  476,  477
  478,  479,  480,  481,  482,  483,  484,  485,  486,  487,  488,  489,  490,  491,  492,  493
  494,  495,  496,  497,  498,  501,  502,  503,  504,  505,  506,  507,  508,  509,  510,  511
  512,  513,  514,  515,  516,  517,  518,  519,  520,  521,  522,  523,  524,  525,  526,  527
  528,  529,  530,  531,  532,  533,  534,  535,  536,  537,  538,  539,  540,  541,  542,  543
  544,  545,  546,  547,  548,  549,  550,  551,  552,  553,  554,  555,  556,  557,  558,  559
  560,  561,  562,  563,  564,  565,  566,  567,  568,  569,  570,  571,  572,  573,  574,  575
** ... 110 like lines cut
*Elset, elset=Outside, instance=TargetPlate-1
     1,     2,     3,     4,     5,     6,     7,     8,     9,    10,    11,    12,    13,    14,    15,    16
    17,    18,    19,    20,    21,    22,    23,    24,    25,    26,    27,    28,    29,    30,    31,    32
    33,    34,    35,    36,    37,    38,    39,    40,    41,    42,    43,    44,    45,    46,    47,    48
    49,    50,    51,    52,    53,    54,    55,    56,    57,    58,    59,    60,    61,    62,    63,    64
    65,    66,    67,    68,    69,    70,    71,    72,    73,    74,    75,    76,    77,    78,    79,    80
    81,    82,    83,    84,    85,    86,    87,    88,    89,    90,    91,    92,    93,    94,    95,    96
    97,    98,    99,   100,   101,   102,   103,   104,   105,   106,   107,   108,   109,   110,   111,   112
   113,   114,   115,   116,   117,   118,   119,   120,   121,   122,   123,   124,   125,   126,   127,   128
   129,   130,   131,   132,   133,   134,   135,   136,   137,   138,   139,   140,   141,   142,   143,   144
   145,   146,   147,   148,   149,   150,   151,   152,   153,   154,   155,   156,   157,   158,   159,   160
   161,   162,   163,   164,   165,   166,   167,   168,   169,   170,   171,   172,   173,   174,   175,   176
   177,   178,   179,   180,   181,   182,   183,   184,   185,   186,   187,   188,   189,   190,   191,   192
   193,   194,   195,   196,   197,   198,   199,   200,   201,   202,   203,   204,   205,   206,   207,   208
   209,   210,   211,   212,   213,   214,   215,   216,   217,   218,   219,   220,   221,   222,   223,   224
   225,   226,   227,   228,   229,   230,   231,   232,   233,   234,   235,   236,   237,   238,   239,   240
   241,   242,   243,   244,   245,   246,   247,   248,   249,   250,   251,   252,   253,   254,   255,   256
   257,   258,   259,   260,   261,   262,   263,   264,   265,   266,   267,   268,   269,   270,   271,   272
   273,   274,   275,   276,   277,   278,   279,   280,   281,   282,   283,   284,   285,   286,   287,   288
   289,   290,   291,   292,   293,   294,   295,   296,   297,   298,   299,   300,   301,   302,   303,   304
   305,   306,   307,   308,   309,   310,   311,   312,   313,   314,   315,   316,   317,   318,   319,   320
** ... 102 like lines cut
*Nset, nset=XSymm, instance=TargetPlate-1
    2,    3,    6,    7,   11,   12,   14,   16,   40,   41,   42,   43,   44,   45,   46,   47
   48,   49,   50,   51,   52,   53,   54,   55,   56,   57,   58,   59,   60,  127,  128,  129
  130,  131,  132,  133,  134,  135,  136,  137,  138,  139,  140,  141,  142,  143,  144,  145
  146,  147,  215,  216,  217,  218,  219,  220,  221,  222,  223,  224,  225,  226,  227,  228
  229,  230,  231,  232,  233,  234,  235,  236,  237,  238,  288,  289,  290,  291,  292,  293
  294,  295,  296,  297,  298,  299,  300,  301,  302,  303,  304,  305,  306,  307,  308,  309
  310,  311,  312,  313,  314,  315,  316,  317,  318,  319,  320,  321,  322,  323,  324,  325
  326,  327,  328,  329,  330,  331,  332,  333,  334,  335,  336,  337,  338,  339,  340,  341
  342,  343,  344,  345,  346,  347,  348,  349,  350,  351,  352,  353,  354,  355,  356,  357
  358,  359,  360,  361,  362,  363,  364,  365,  366,  367,  368,  369,  370,  371,  372,  373
  374,  375,  376,  377,  378,  379,  380,  381,  382,  383,  384,  385,  386,  387,  388,  389
  390,  391,  392,  393,  394,  395,  396,  397,  472,  473,  499,  500,  501,  502,  503,  504
  505,  506,  507,  508,  509,  510,  511,  512, 1743, 1744, 1745, 1746, 1747, 1748, 1749, 1750
 1751, 1752, 1753, 1754, 1755, 1756, 1757, 1758, 1759, 1760, 1761, 1762, 1763, 1764, 1765, 1766
 1767, 1768, 1769, 1770, 1771, 1772, 1773, 1774, 1775, 1776, 1777, 1778, 1779, 1780, 1781, 1782
 1783, 1784, 1785, 1786, 1787, 1788, 1789, 1790, 1791, 1792, 1793, 1794, 1795, 1796, 1797, 1798
 1799, 1800, 1801, 1802, 1803, 1804, 1805, 1806, 1807, 1808, 1809, 1810, 1811, 1812, 1813, 1814
 1815, 1816, 1817, 1818, 1819, 1820, 1821, 1822, 1823, 1824, 1825, 1826, 1827, 1828, 1829, 1830
 1831, 1832, 1833, 1834, 1835, 1836, 1837, 1838, 1839, 1840, 1841, 1842, 1843, 1844, 1845, 1846
 1847, 1848, 1849, 1850, 1851, 1852, 1853, 1854, 1855, 1856, 1857, 1858, 1859, 1860, 1861, 1862
** ... 47 like lines cut
*Nset, nset=XSymm, instance=SteelProjectile-1
   2,   3,   5,   6,   7,   8,   9,  10,  11,  12,  13,  14,  15,  16,  17,  18
  19,  20,  21,  22,  23,  92,  93,  94,  95,  96,  97,  98,  99, 100, 101, 102
 103, 104, 105, 106, 107, 108, 109, 110, 111, 112, 113, 114, 115, 116, 117, 118
 119, 120, 576, 577, 578, 579, 580, 581, 582, 583, 584, 585, 586, 587, 588, 589
 590, 591, 592, 593, 594, 595, 596, 597, 598, 599, 600, 601, 602, 603, 604, 605
 606, 607, 608, 609, 610, 611, 612, 613, 614, 615, 616, 617, 618, 619, 620, 621
 622, 623, 624, 625, 626, 627, 628, 629, 630, 631, 632, 633, 634, 635, 636, 637
 638, 639, 640, 641, 642, 643, 644, 645, 646, 647, 648, 649, 650, 651, 652, 653
 654, 655, 656, 657, 658, 659, 660, 661, 662, 663, 664, 665, 666, 667, 668, 669
 670, 671, 672, 673, 674, 675, 676, 677, 678, 679, 680, 681, 682, 683, 684, 685
 686, 687, 688, 689, 690, 691, 692, 693, 694, 695, 696, 697, 698, 699, 700, 701
 702, 703, 704, 705, 706, 707, 708, 709, 710, 711, 712, 713, 714, 715, 716, 717
 718, 719, 720, 721, 722, 723, 724, 725, 726, 727, 728, 729, 730
*Elset, elset=XSymm, instance=TargetPlate-1
    24,    48,    72,    96,   120,   144,   168,   192,   216,   240,   264,   288,   312,   336,   360,   384
   408,   432,   456,   480,   504,   528,   552,   576,   600,   624,   648,   672,   696,   720,   744,   768
   792,   816,   840,   864,   888,   912,   936,   960,   984,  1008,  1032,  1056,  1080,  1104,  1128,  1152
  1176,  1200,  1224,  1248,  1272,  1296,  1320,  1344,  1368,  1392,  1416,  1440,  1464,  1488,  1512,  1536
  1560,  1584,  1608,  1632,  1656,  1680,  1704,  1728,  1752,  1776,  1800,  1824,  1848,  1872,  1896,  1920
  1944,  1968,  1992,  2016,  2040,  2064,  2088,  2112,  2136,  2160,  2184,  2208,  2232,  2256,  2280,  2304
  2328,  2352,  2376,  2400,  2424,  2448,  2472,  2496,  2520,  2544,  2568,  2592,  2616,  2640,  2664,  2688
  2712,  2736,  2760,  2784,  2808,  2832,  2856,  2880,  2904,  2928,  2952,  2976,  3000,  3024,  3048,  3072
  3096,  3120,  3144,  3168,  3192,  3216,  3240,  3264,  3288,  3312,  3336,  3360,  3384,  3408,  3432,  3456
  3480,  3504,  3528,  3552,  3576,  3600,  3624,  3648,  3672,  3696,  3720,  3744,  3768,  3792,  3816,  3840
  3864,  3888,  3912,  3936,  3960,  3984,  4008,  4032,  4056,  4080,  4104,  4128,  4152,  4176,  4200,  4224
  4248,  4272,  4296,  4320,  4344,  4368,  4392,  4416,  4440,  4464,  4488,  4512,  4536,  4560,  4584,  4608
  4632,  4656,  4680,  4704,  4728,  4752,  4776,  4800,  4824,  4848,  4872,  4896,  4920,  4944,  4968,  4992
  5016,  5040,  5064,  5088,  5112,  5136,  5160,  5184,  5208,  5232,  5256,  5280,  5304,  5328,  5352,  5376
  5400,  5424,  5448,  5472,  5496,  5520,  5544,  5568,  5592,  5616,  5640,  5664,  5688,  5712,  5736,  5760
  5784,  5808,  5832,  5856,  5880,  5904,  5928,  5952,  5976,  6000,  6024,  6048,  6072,  6096,  6120,  6144
  6168,  6192,  6216,  6240,  6264,  6288,  6312,  6336,  6360,  6384,  6408,  6432,  6456,  6480,  6504,  6528
  6552,  6576,  6600,  6624,  6648,  6672,  6696,  6720,  6744,  6768,  6792,  6816,  6840,  6864,  9612,  9624
  9636,  9648,  9660,  9672,  9684,  9696,  9708,  9720,  9732,  9744,  9756,  9768,  9780,  9792,  9804,  9816
  9828,  9840,  9852,  9864,  9876,  9888,  9900,  9912,  9924,  9936,  9948,  9960,  9972,  9984,  9996, 10008
** ... 41 like lines cut
*Elset, elset=XSymm, instance=SteelProjectile-1
 1877, 1878, 1879, 1880, 1881, 1882, 1883, 1884, 1885, 1886, 1887, 1888, 1889, 1890, 1891, 1892
 1893, 1894, 1895, 1896, 1897, 1898, 1899, 1900, 1901, 1902, 1903, 1904, 1905, 1906, 1907, 1908
 1909, 1910, 1911, 1912, 1913, 1914, 1915, 1916, 1917, 1918, 1919, 1920, 1921, 1922, 1923, 1924
 1925, 1926, 1927, 1928, 1929, 1930, 1931, 1932, 1933, 1934, 1935, 1936, 1937, 1938, 1939, 1940
 1941, 1942, 1943, 1944, 1945, 1946, 1947, 1948, 1949, 1950, 1951, 1952, 1953, 1954, 1955, 1956
 1957, 1958, 1959, 1960, 1961, 1962, 1963, 1964, 1965, 1966, 1967, 1968, 1969, 1970, 1971, 1972
 1973, 1974, 1975, 1976, 1977, 1978, 1979, 1980, 1981, 1982, 1983, 1984, 1985, 1986, 1987, 1988
 1989, 1990, 1991, 1992, 1993, 1994, 1995, 1996, 1997, 1998, 1999, 2000, 2001, 2002, 2003, 2004
 2005, 2006, 2007, 2008, 2009, 2010, 2011, 2012, 2013, 2014, 2015, 2016, 2017, 2018, 2019, 2020
 2021, 2022, 2023, 2024, 2025, 2026, 2027, 2028, 2029, 2030, 2031, 2032, 2033, 2034, 2130, 2131
 2132, 2133, 2134, 2135, 2136, 2137, 2138, 2139, 2140, 2141, 2142, 2143, 2144, 2145, 2146, 2147
 2148, 2169, 2170, 2171, 2172
*Nset, nset=YSymm, instance=TargetPlate-1
    1,    4,    8,   10,   11,   12,   13,   15,   84,   85,   86,   87,   88,   89,   90,   91
   92,   93,   94,   95,   96,   97,   98,   99,  100,  101,  102,  103,  104,  170,  171,  172
  173,  174,  175,  176,  177,  178,  179,  180,  181,  182,  183,  184,  185,  186,  187,  188
  189,  190,  191,  192,  193,  194,  195,  196,  197,  198,  199,  200,  201,  202,  203,  204
  205,  206,  207,  208,  209,  210,  211,  212,  213,  214,  239,  240,  241,  242,  243,  244
  245,  246,  247,  248,  249,  250,  251,  252,  253,  254,  255,  256,  257,  258,  259,  260
  261,  262,  263,  264,  265,  266,  267,  268,  269,  270,  271,  272,  273,  274,  275,  276
  277,  278,  279,  280,  281,  282,  283,  284,  285,  286,  287,  337,  338,  339,  340,  341
  342,  343,  344,  345,  346,  347,  348,  398,  399,  400,  401,  402,  403,  404,  405,  406
  407,  408,  409,  410,  411,  412,  413,  414,  415,  416,  417,  418,  419,  420,  421,  422
  423,  424,  425,  426,  427,  428,  429,  430,  431,  432,  433,  434,  435,  436,  437,  438
  439,  440,  441,  442,  443,  444,  445,  446,  447,  448,  474,  475,  513,  514,  515,  516
  517,  518,  519,  520,  521,  522,  523,  524, 1491, 1492, 1493, 1494, 1495, 1496, 1497, 1498
 1499, 1500, 1501, 1502, 1503, 1504, 1505, 1506, 1507, 1508, 1509, 1510, 1511, 1512, 1513, 1514
 1515, 1516, 1517, 1518, 1519, 1520, 1521, 1522, 1523, 1524, 1525, 1526, 1527, 1528, 1529, 1530
 1531, 1532, 1533, 1534, 1535, 1536, 1537, 1538, 1539, 1540, 1541, 1542, 1543, 1544, 1545, 1546
 1547, 1548, 1549, 1550, 1551, 1552, 1553, 1554, 1555, 1556, 1557, 1558, 1559, 1560, 1561, 1562
 1563, 1564, 1565, 1566, 1567, 1568, 1569, 1570, 1571, 1572, 1573, 1574, 1575, 1576, 1577, 1578
 1579, 1580, 1581, 1582, 1583, 1584, 1585, 1586, 1587, 1588, 1589, 1590, 1591, 1592, 1593, 1594
 1595, 1596, 1597, 1598, 1599, 1600, 1601, 1602, 1603, 1604, 1605, 1606, 1607, 1608, 1609, 1610
** ... 47 like lines cut
*Nset, nset=YSymm, instance=SteelProjectile-1
   2,   3,   4,   6,   7,   8,   9,  10,  11,  12,  13,  14,  15,  16,  17,  18
  19,  20,  21,  22,  23,  58,  59,  60,  61,  62,  63,  64,  65,  66,  67,  68
  69,  70,  71,  72,  73,  74,  75,  76,  77,  78,  79,  80,  81,  82,  83,  84
  85,  86, 276, 277, 278, 279, 280, 281, 282, 283, 284, 285, 286, 287, 288, 289
 290, 291, 292, 293, 294, 295, 296, 297, 298, 299, 300, 301, 302, 303, 304, 305
 306, 307, 308, 309, 310, 311, 312, 313, 314, 315, 316, 317, 318, 319, 320, 321
 322, 323, 324, 325, 326, 327, 328, 329, 330, 331, 332, 333, 334, 335, 336, 337
 338, 339, 340, 341, 342, 343, 344, 345, 346, 347, 348, 349, 350, 351, 352, 353
 354, 355, 356, 357, 358, 359, 360, 361, 362, 363, 364, 365, 366, 367, 368, 369
 370, 371, 372, 373, 374, 375, 376, 377, 378, 379, 380, 381, 382, 383, 384, 385
 386, 387, 388, 389, 390, 391, 392, 393, 394, 395, 396, 397, 398, 399, 400, 401
 402, 403, 404, 405, 406, 407, 408, 409, 410, 411, 412, 413, 414, 415, 416, 417
 418, 419, 420, 421, 422, 423, 424, 425, 426, 427, 428, 429, 430
*Elset, elset=YSymm, instance=TargetPlate-1
     1,    25,    49,    73,    97,   121,   145,   169,   193,   217,   241,   265,   289,   313,   337,   361
   385,   409,   433,   457,   481,   505,   529,   553,   577,   601,   625,   649,   673,   697,   721,   745
   769,   793,   817,   841,   865,   889,   913,   937,   961,   985,  1009,  1033,  1057,  1081,  1105,  1129
  1153,  1177,  1201,  1225,  1249,  1273,  1297,  1321,  1345,  1369,  1393,  1417,  1441,  1465,  1489,  1513
  1537,  1561,  1585,  1609,  1633,  1657,  1681,  1705,  1729,  1753,  1777,  1801,  1825,  1849,  1873,  1897
  1921,  1945,  1969,  1993,  2017,  2041,  2065,  2089,  2113,  2137,  2161,  2185,  2209,  2233,  2257,  2281
  2305,  2329,  2353,  2377,  2401,  2425,  2449,  2473,  2497,  2521,  2545,  2569,  2593,  2617,  2641,  2665
  2689,  2713,  2737,  2761,  2785,  2809,  2833,  2857,  2881,  2905,  2929,  2953,  2977,  3001,  3025,  3049
  3073,  3097,  3121,  3145,  3169,  3193,  3217,  3241,  3265,  3289,  3313,  3337,  3361,  3385,  3409,  3433
  3457,  3481,  3505,  3529,  3553,  3577,  3601,  3625,  3649,  3673,  3697,  3721,  3745,  3769,  3793,  3817
  3841,  3865,  3889,  3913,  3937,  3961,  3985,  4009,  4033,  4057,  4081,  4105,  4129,  4153,  4177,  4201
  4225,  4249,  4273,  4297,  4321,  4345,  4369,  4393,  4417,  4441,  4465,  4489,  4513,  4537,  4561,  4585
  4609,  4633,  4657,  4681,  4705,  4729,  4753,  4777,  4801,  4825,  4849,  4873,  4897,  4921,  4945,  4969
  4993,  5017,  5041,  5065,  5089,  5113,  5137,  5161,  5185,  5209,  5233,  5257,  5281,  5305,  5329,  5353
  5377,  5401,  5425,  5449,  5473,  5497,  5521,  5545,  5569,  5593,  5617,  5641,  5665,  5689,  5713,  5737
  5761,  5785,  5809,  5833,  5857,  5881,  5905,  5929,  5953,  5977,  6001,  6025,  6049,  6073,  6097,  6121
  6145,  6169,  6193,  6217,  6241,  6265,  6289,  6313,  6337,  6361,  6385,  6409,  6433,  6457,  6481,  6505
  6529,  6553,  6577,  6601,  6625,  6649,  6673,  6697,  6721,  6745,  6769,  6793,  6817,  6841,  6865,  6866
  6867,  6868,  6869,  6870,  6871,  6872,  6873,  6874,  6875,  6876,  6877,  6878,  6879,  6880,  6881,  6882
  6883,  6884,  6885,  6886,  6887,  6888,  6889,  6890,  6891,  6892,  6893,  6894,  6895,  6896,  6897,  6898
** ... 41 like lines cut
*Elset, elset=YSymm, instance=SteelProjectile-1
  791,  792,  793,  794,  795,  796,  797,  798,  799,  800,  801,  802,  803,  804,  805,  806
  807,  808,  809,  810,  811,  812,  813,  814,  815,  816,  817,  818,  819,  820,  821,  822
  823,  824,  825,  826,  827,  828,  829,  830,  831,  832,  833,  834,  835,  836,  837,  838
  839,  840,  841,  842,  843,  844,  845,  846,  847,  848,  849,  850,  851,  852,  853,  854
  855,  856,  857,  858,  859,  860,  861,  862,  863,  864,  865,  866,  867,  868,  869,  870
  871,  872,  873,  874,  875,  876,  877,  878,  879,  880,  881,  882,  883,  884,  885,  886
  887,  888,  889,  890,  891,  892,  893,  894,  895,  896,  897,  898,  899,  900,  901,  902
  903,  904,  905,  906,  907,  908,  909,  910,  911,  912,  913,  914,  915,  916,  917,  918
  919,  920,  921,  922,  923,  924,  925,  926,  927,  928,  929,  930,  931,  932,  933,  934
  935,  936,  937,  938,  939,  940,  941,  942,  943,  944,  945,  946,  947,  948, 1044, 1045
 1046, 1047, 1048, 1049, 1050, 1051, 1052, 1053, 1054, 1055, 1056, 1057, 1058, 1059, 1060, 1061
 1062, 1083, 1084, 1085, 1086
*Elset, elset=_ALLCONT_S1, internal, instance=SteelProjectile-1, generate
    1,  2172,     1
*Elset, elset=_ALLCONT_S2, internal, instance=SteelProjectile-1, generate
    1,  2172,     1
*Elset, elset=_ALLCONT_S3, internal, instance=SteelProjectile-1, generate
    1,  2172,     1
*Elset, elset=_ALLCONT_S4, internal, instance=SteelProjectile-1, generate
    1,  2172,     1
*Elset, elset=_ALLCONT_S5, internal, instance=SteelProjectile-1, generate
    1,  2172,     1
*Elset, elset=_ALLCONT_S6, internal, instance=SteelProjectile-1
    1,    2,    3,    4,    5,    6,    7,    8,    9,   10,   11,   12,   13,   14,   15,   16
   17,   18,   19,   20,   21,   22,   23,   24,   25,   26,   27,   28,   29,   30,   31,   32
   33,   34,   35,   36,   37,   38,   39,   40,   41,   42,   43,   44,   45,   46,   47,   48
   49,   50,   51,   52,   53,   54,   55,   56,   57,   58,   59,   60,   61,   62,   63,   64
   65,   66,   67,   68,   69,   70,   71,   72,   73,   74,   75,   76,   77,   78,   79,   80
   81,   82,   83,   84,   85,   86,   87,   88,   89,   90,   91,   92,   93,   94,   95,   96
   97,   98,   99,  100,  101,  102,  103,  104,  105,  106,  107,  108,  109,  110,  111,  112
  113,  114,  115,  116,  117,  118,  119,  120,  121,  122,  123,  124,  125,  126,  127,  128
  129,  130,  131,  132,  133,  134,  135,  136,  137,  138,  139,  140,  141,  142,  143,  144
  145,  146,  147,  148,  149,  150,  151,  152,  153,  154,  155,  156,  157,  158,  159,  160
  161,  162,  163,  164,  165,  166,  167,  168,  169,  170,  171,  172,  173,  174,  175,  176
  177,  178,  179,  180,  181,  182,  183,  184,  185,  186,  187,  188,  189,  190,  191,  192
  193,  194,  195,  196,  197,  198,  199,  200,  201,  202,  203,  204,  205,  206,  207,  208
  209,  210,  211,  212,  213,  214,  215,  216,  217,  218,  219,  220,  221,  222,  223,  224
  225,  226,  227,  228,  229,  230,  231,  232,  233,  234,  235,  236,  237,  238,  239,  240
  241,  242,  243,  244,  245,  246,  247,  248,  249,  250,  251,  252,  253,  254,  255,  256
  257,  258,  259,  260,  261,  262,  263,  264,  265,  266,  267,  268,  269,  270,  271,  272
  273,  274,  275,  276,  277,  278,  279,  280,  281,  282,  283,  284,  285,  286,  287,  288
  289,  290,  291,  292,  293,  294,  295,  296,  297,  298,  299,  300,  301,  302,  303,  304
  305,  306,  307,  308,  309,  310,  311,  312,  313,  314,  315,  316,  317,  318,  319,  320
** ... 99 like lines cut
*Surface, type=ELEMENT, name=ALLCONT
_ALLCONT_S1, S1
_ALLCONT_S2, S2
_ALLCONT_S4, S4
_ALLCONT_S6, S6
_ALLCONT_S3, S3
_ALLCONT_S5, S5
*End Assembly
** 
** ELEMENT CONTROLS
** 
*Section Controls, name=EC-1, ELEMENT DELETION=YES, MAX DEGRADATION=0.05
1., 1., 1.
*Section Controls, name=EC-2, ELEMENT DELETION=YES
1., 1., 1.
** 
** MATERIALS
** 
*Material, name=Dyneema_Hazzard
*Damage Initiation, criterion=HASHIN
 1.25e+09, 1.25e+09, 1.25e+09, 1.25e+09,  1.8e+06,  1.8e+06
*Density
970.,
*Elastic, type=ENGINEERING CONSTANTS
 3.4257e+10, 3.4257e+10,   3.26e+09,      0.001,      0.013,      0.013,  1.738e+08,  5.478e+08
  5.478e+08,
*Material, name=Dyneema_Hazzard-Elastic
*Density
970.,
*Elastic, type=ENGINEERING CONSTANTS
 3.4257e+10, 3.4257e+10,   3.26e+09,      0.001,      0.013,      0.013,  1.738e+08,  5.478e+08
  5.478e+08,
*Material, name=FIBERS_Fail
*Damage Initiation, criterion=DUCTILE
 0.03,   0., 0.01
*Damage Evolution, type=ENERGY
1.,
*Density
981.,
*Elastic
 2e+08, 0.49
*Plastic
 2.5e+09,0.
*Rate Dependent
1., 0.08
*Material, name=Fibers
*Density
981.,
*Elastic
 1.3e+11, 0.49
** Properties from Matweb: AISI Type M50 Tool Steel
*Material, name=M50_ToolSteel
*Damage Initiation, criterion=DUCTILE
 0.198, 0.33333,  0.0002
*Damage Evolution, type=ENERGY
201000.,
*Density
7970.,
*Elastic
 2.034e+11, 0.3
*Plastic
 1.894e+09,0.
*Material, name=Matrix_Utomo
*Density
308.,
*Elastic, type=ENGINEERING CONSTANTS
 4.04e+10,  4.04e+10, 4.271e+09,      0.02,      0.06,      0.06,     9e+08,     4e+08
     4e+08,
*Material, name=Matrix_Utomo-Isotropic
*Damage Initiation, criterion=DUCTILE
 0.0003, 0.333333,     0.01
*Damage Evolution, type=ENERGY, softening=EXPONENTIAL
544.,
*Density
308.,
*Elastic
 4.271e+09, 0.06
*Plastic
 1.2e+06,0.
*Material, name=Matrix_Utomo-Isotropic-Copy
*Density
308.,
*Elastic
 4.271e+09, 0.06
*Plastic
 1.2e+06,     0.
 1.3e+06, 0.0001
** 
** INTERACTION PROPERTIES
** 
*Surface Interaction, name=IntProp-1
*Friction
 0.42,
** 
** BOUNDARY CONDITIONS
** 
** Name: Clamp Type: Symmetry/Antisymmetry/Encastre
*Boundary
Clamp, ENCASTRE
** Name: SymmX Type: Symmetry/Antisymmetry/Encastre
*Boundary
XSymm, XSYMM
** Name: Symmy Type: Symmetry/Antisymmetry/Encastre
*Boundary
YSymm, YSYMM
** 
** PREDEFINED FIELDS
** 
** Name: ProjectileVel   Type: Velocity
*Initial Conditions, type=VELOCITY
SteelProjectile-1.All, 1, 0.
SteelProjectile-1.All, 2, 0.
SteelProjectile-1.All, 3, -800.
** ----------------------------------------------------------------
** 
** STEP: Step-1
** 
*Step, name=Step-1, nlgeom=YES
*Dynamic, Explicit
, 0.00015
*Bulk Viscosity
0.06, 1.2
** 
** INTERACTIONS
** 
** Interaction: GeneralContact
*Contact, op=NEW
*Contact Inclusions
ALLCONT , 
*Contact Property Assignment
 ,  , IntProp-1
** 
** OUTPUT REQUESTS
** 
*Restart, write, number interval=1, time marks=NO
** 
** FIELD OUTPUT: F-Output-1
** 
*Output, field, number interval=200
*Node Output
A, U, V
*Element Output, directions=YES
CFAILURE, DMICRT, ER, LE, MISES, PE, PEEQ, S, SDEG, SEQUT, STATUS
** 
** HISTORY OUTPUT: H-Output-1
** 
*Output, history, variable=PRESELECT
*End Step
