*Heading
** Job name: Dyneema-3PtBend Model name: Dyneema-3PtBend
** Generated by: Abaqus/CAE 2021
*Preprint, echo=NO, model=NO, history=NO, contact=NO
**
** PARTS
**
*Part, name=BeamSlice
*Node
      1, 0.0500000007, 0.00499999989, 0.00039999999
      2, 0.0500000007, 0.00400000019, 0.00039999999
      3, 0.0500000007, 0.00300000003, 0.00039999999
      4, 0.0500000007, 0.00200000009, 0.00039999999
      5, 0.0500000007, 0.00100000005, 0.00039999999
      6, 0.0500000007,           0., 0.00039999999
      7, 0.0500000007, -0.00100000005, 0.00039999999
      8, 0.0500000007, -0.00200000009, 0.00039999999
      9, 0.0500000007, -0.00300000003, 0.00039999999
     10, 0.0500000007, -0.00400000019, 0.00039999999
     11, 0.0500000007, -0.00499999989, 0.00039999999
     12, 0.0500000007, 0.00499999989,           0.
     13, 0.0500000007, 0.00400000019,           0.
     14, 0.0500000007, 0.00300000003,           0.
     15, 0.0500000007, 0.00200000009,           0.
     16, 0.0500000007, 0.00100000005,           0.
     17, 0.0500000007,           0.,           0.
     18, 0.0500000007, -0.00100000005,           0.
     19, 0.0500000007, -0.00200000009,           0.
     20, 0.0500000007, -0.00300000003,           0.
** ... 2202 like lines cut
*Element, type=C3D8R
   1,   23,   24,   35,   34,    1,    2,   13,   12
   2,   24,   25,   36,   35,    2,    3,   14,   13
   3,   25,   26,   37,   36,    3,    4,   15,   14
   4,   26,   27,   38,   37,    4,    5,   16,   15
   5,   27,   28,   39,   38,    5,    6,   17,   16
   6,   28,   29,   40,   39,    6,    7,   18,   17
   7,   29,   30,   41,   40,    7,    8,   19,   18
   8,   30,   31,   42,   41,    8,    9,   20,   19
   9,   31,   32,   43,   42,    9,   10,   21,   20
  10,   32,   33,   44,   43,   10,   11,   22,   21
  11,   45,   46,   57,   56,   23,   24,   35,   34
  12,   46,   47,   58,   57,   24,   25,   36,   35
  13,   47,   48,   59,   58,   25,   26,   37,   36
  14,   48,   49,   60,   59,   26,   27,   38,   37
  15,   49,   50,   61,   60,   27,   28,   39,   38
  16,   50,   51,   62,   61,   28,   29,   40,   39
  17,   51,   52,   63,   62,   29,   30,   41,   40
  18,   52,   53,   64,   63,   30,   31,   42,   41
  19,   53,   54,   65,   64,   31,   32,   43,   42
  20,   54,   55,   66,   65,   32,   33,   44,   43
** ... 980 like lines cut
*Nset, nset=Set-1, generate
    1,  2222,     1
*Elset, elset=Set-1, generate
    1,  1000,     1
*Elset, elset=_Front_S3, internal, generate
    1,  1000,     1
*Surface, type=ELEMENT, name=Front
_Front_S3, S3
*Elset, elset=_Back_S5, internal, generate
    1,  1000,     1
*Surface, type=ELEMENT, name=Back
_Back_S5, S5
** Section: Beam
*Solid Section, elset=Set-1, material=DYNEEMA_CHOCRON
,
*End Part
**
*Part, name=Fibers0
*Node
      1,     -0.049900,     -0.005000,      0.000100
      2,     -0.049900,     -0.003750,      0.000100
      3,     -0.049900,     -0.002500,      0.000100
      4,     -0.049900,     -0.001250,      0.000100
      5,     -0.049900,      0.000000,      0.000100
      6,     -0.049900,      0.001250,      0.000100
      7,     -0.049900,      0.002500,      0.000100
      8,     -0.049900,      0.003750,      0.000100
      9,     -0.049900,      0.005000,      0.000100
      10,     -0.049500,     -0.005000,      0.000100
      11,     -0.049500,     -0.003750,      0.000100
      12,     -0.049500,     -0.002500,      0.000100
      13,     -0.049500,     -0.001250,      0.000100
      14,     -0.049500,      0.000000,      0.000100
      15,     -0.049500,      0.001250,      0.000100
      16,     -0.049500,      0.002500,      0.000100
      17,     -0.049500,      0.003750,      0.000100
      18,     -0.049500,      0.005000,      0.000100
      19,     -0.049100,     -0.005000,      0.000100
      20,     -0.049100,     -0.003750,      0.000100
** ... 11230 like lines cut
*Element, type=T3D2
1, 1, 2
2, 2, 3
3, 3, 4
4, 4, 5
5, 5, 6
6, 6, 7
7, 7, 8
8, 8, 9
9, 10, 11
10, 11, 12
11, 12, 13
12, 13, 14
13, 14, 15
14, 15, 16
15, 16, 17
16, 17, 18
17, 19, 20
18, 20, 21
19, 21, 22
20, 22, 23
** ... 9980 like lines cut
*Nset, nset=Fib0, internal, generate
1, 11250, 1
*Elset, elset=Fib0, internal, generate
1, 10001, 1
**Section: TrussSection
*Solid Section, elset=Fib0, material=Fibers
1.257470E-07,
*End Part
**
*Part, name=Fibers90
*Node
      1,     -0.050000,     -0.004900,      0.000500
      2,     -0.048750,     -0.004900,      0.000500
      3,     -0.047500,     -0.004900,      0.000500
      4,     -0.046250,     -0.004900,      0.000500
      5,     -0.045000,     -0.004900,      0.000500
      6,     -0.043750,     -0.004900,      0.000500
      7,     -0.042500,     -0.004900,      0.000500
      8,     -0.041250,     -0.004900,      0.000500
      9,     -0.040000,     -0.004900,      0.000500
      10,     -0.038750,     -0.004900,      0.000500
      11,     -0.037500,     -0.004900,      0.000500
      12,     -0.036250,     -0.004900,      0.000500
      13,     -0.035000,     -0.004900,      0.000500
      14,     -0.033750,     -0.004900,      0.000500
      15,     -0.032500,     -0.004900,      0.000500
      16,     -0.031250,     -0.004900,      0.000500
      17,     -0.030000,     -0.004900,      0.000500
      18,     -0.028750,     -0.004900,      0.000500
      19,     -0.027500,     -0.004900,      0.000500
      20,     -0.026250,     -0.004900,      0.000500
** ... 10105 like lines cut
*Element, type=T3D2
1, 1, 2
2, 2, 3
3, 3, 4
4, 4, 5
5, 5, 6
6, 6, 7
7, 7, 8
8, 8, 9
9, 9, 10
10, 10, 11
11, 11, 12
12, 12, 13
13, 13, 14
14, 14, 15
15, 15, 16
16, 16, 17
17, 17, 18
18, 18, 19
19, 19, 20
20, 20, 21
** ... 9980 like lines cut
*Nset, nset=Fib90, internal, generate
1, 10125, 1
*Elset, elset=Fib90, internal, generate
1, 10001, 1
**Section: TrussSection
*Solid Section, elset=Fib90, material=Fibers
1.257470E-07,
*End Part
**  
**  
**
** ASSEMBLY
**
*Assembly, name=Assembly
**  
*Instance, name=BeamSlice-1, part=BeamSlice
*End Instance
**
*Instance, name=Fibers0, part=Fibers0
0.000000E+00, 0.000000E+00, 0.000000E+00
*End Instance
**
*Instance, name=Fibers90, part=Fibers90
0.000000E+00, 0.000000E+00, 0.000000E+00
*End Instance
*Nset, nset=ALLFIBERS, instance=FIBERS0, generate
1, 11250, 1
*Nset, nset=ALLFIBERS, instance=FIBERS90, generate
1, 10125, 1
*Elset, elset=ALLFIBERS, instance=FIBERS0, generate
1, 10001, 1
*Elset, elset=ALLFIBERS, instance=FIBERS90, generate
1, 10001, 1
**  
*Instance, name=BeamSlice-2, part=BeamSlice
          0.,           0.,       0.0004
*End Instance
**  
*Instance, name=BeamSlice-3, part=BeamSlice
          0.,           0.,       0.0008
*End Instance
**  
*Instance, name=BeamSlice-4, part=BeamSlice
          0.,           0.,       0.0012
*End Instance
**  
*Instance, name=BeamSlice-5, part=BeamSlice
          0.,           0.,       0.0016
*End Instance
**  
*Instance, name=BeamSlice-6, part=BeamSlice
          0.,           0.,        0.002
*End Instance
**  
*Instance, name=BeamSlice-7, part=BeamSlice
          0.,           0.,       0.0024
*End Instance
**  
*Instance, name=BeamSlice-8, part=BeamSlice
          0.,           0.,       0.0028
*End Instance
**  
*Instance, name=BeamSlice-9, part=BeamSlice
          0.,           0.,       0.0032
*End Instance
**  
*Instance, name=BeamSlice-10, part=BeamSlice
          0.,           0.,       0.0036
*End Instance
**  
*Nset, nset=Host, instance=BeamSlice-1, generate
    1,  2222,     1
*Nset, nset=Host, instance=BeamSlice-2, generate
    1,  2222,     1
*Nset, nset=Host, instance=BeamSlice-4, generate
    1,  2222,     1
*Nset, nset=Host, instance=BeamSlice-8, generate
    1,  2222,     1
*Nset, nset=Host, instance=BeamSlice-6, generate
    1,  2222,     1
*Nset, nset=Host, instance=BeamSlice-10, generate
    1,  2222,     1
*Nset, nset=Host, instance=BeamSlice-3, generate
    1,  2222,     1
*Nset, nset=Host, instance=BeamSlice-5, generate
    1,  2222,     1
*Nset, nset=Host, instance=BeamSlice-9, generate
    1,  2222,     1
*Nset, nset=Host, instance=BeamSlice-7, generate
    1,  2222,     1
*Elset, elset=Host, instance=BeamSlice-1, generate
    1,  1000,     1
*Elset, elset=Host, instance=BeamSlice-2, generate
    1,  1000,     1
*Elset, elset=Host, instance=BeamSlice-4, generate
    1,  1000,     1
*Elset, elset=Host, instance=BeamSlice-8, generate
    1,  1000,     1
*Elset, elset=Host, instance=BeamSlice-6, generate
    1,  1000,     1
*Elset, elset=Host, instance=BeamSlice-10, generate
    1,  1000,     1
*Elset, elset=Host, instance=BeamSlice-3, generate
    1,  1000,     1
*Elset, elset=Host, instance=BeamSlice-5, generate
    1,  1000,     1
*Elset, elset=Host, instance=BeamSlice-9, generate
    1,  1000,     1
*Elset, elset=Host, instance=BeamSlice-7, generate
    1,  1000,     1
*Nset, nset=Outside, instance=BeamSlice-1
    1,    2,    3,    4,    5,    6,    7,    8,    9,   10,   11,   12,   13,   14,   15,   16
   17,   18,   19,   20,   21,   22,   23,   33,   34,   35,   36,   37,   38,   39,   40,   41
   42,   43,   44,   45,   55,   56,   57,   58,   59,   60,   61,   62,   63,   64,   65,   66
   67,   77,   78,   79,   80,   81,   82,   83,   84,   85,   86,   87,   88,   89,   99,  100
  101,  102,  103,  104,  105,  106,  107,  108,  109,  110,  111,  121,  122,  123,  124,  125
  126,  127,  128,  129,  130,  131,  132,  133,  143,  144,  145,  146,  147,  148,  149,  150
  151,  152,  153,  154,  155,  165,  166,  167,  168,  169,  170,  171,  172,  173,  174,  175
  176,  177,  187,  188,  189,  190,  191,  192,  193,  194,  195,  196,  197,  198,  199,  209
  210,  211,  212,  213,  214,  215,  216,  217,  218,  219,  220,  221,  231,  232,  233,  234
  235,  236,  237,  238,  239,  240,  241,  242,  243,  253,  254,  255,  256,  257,  258,  259
  260,  261,  262,  263,  264,  265,  275,  276,  277,  278,  279,  280,  281,  282,  283,  284
  285,  286,  287,  297,  298,  299,  300,  301,  302,  303,  304,  305,  306,  307,  308,  309
  319,  320,  321,  322,  323,  324,  325,  326,  327,  328,  329,  330,  331,  341,  342,  343
  344,  345,  346,  347,  348,  349,  350,  351,  352,  353,  363,  364,  365,  366,  367,  368
  369,  370,  371,  372,  373,  374,  375,  385,  386,  387,  388,  389,  390,  391,  392,  393
  394,  395,  396,  397,  407,  408,  409,  410,  411,  412,  413,  414,  415,  416,  417,  418
  419,  429,  430,  431,  432,  433,  434,  435,  436,  437,  438,  439,  440,  441,  451,  452
  453,  454,  455,  456,  457,  458,  459,  460,  461,  462,  463,  473,  474,  475,  476,  477
  478,  479,  480,  481,  482,  483,  484,  485,  495,  496,  497,  498,  499,  500,  501,  502
  503,  504,  505,  506,  507,  517,  518,  519,  520,  521,  522,  523,  524,  525,  526,  527
** ... 64 like lines cut
*Nset, nset=Outside, instance=BeamSlice-2
    1,    2,    3,    4,    5,    6,    7,    8,    9,   10,   11,   12,   13,   14,   15,   16
   17,   18,   19,   20,   21,   22,   23,   33,   34,   44,   45,   55,   56,   66,   67,   77
   78,   88,   89,   99,  100,  110,  111,  121,  122,  132,  133,  143,  144,  154,  155,  165
  166,  176,  177,  187,  188,  198,  199,  209,  210,  220,  221,  231,  232,  242,  243,  253
  254,  264,  265,  275,  276,  286,  287,  297,  298,  308,  309,  319,  320,  330,  331,  341
  342,  352,  353,  363,  364,  374,  375,  385,  386,  396,  397,  407,  408,  418,  419,  429
  430,  440,  441,  451,  452,  462,  463,  473,  474,  484,  485,  495,  496,  506,  507,  517
  518,  528,  529,  539,  540,  550,  551,  561,  562,  572,  573,  583,  584,  594,  595,  605
  606,  616,  617,  627,  628,  638,  639,  649,  650,  660,  661,  671,  672,  682,  683,  693
  694,  704,  705,  715,  716,  726,  727,  737,  738,  748,  749,  759,  760,  770,  771,  781
  782,  792,  793,  803,  804,  814,  815,  825,  826,  836,  837,  847,  848,  858,  859,  869
  870,  880,  881,  891,  892,  902,  903,  913,  914,  924,  925,  935,  936,  946,  947,  957
  958,  968,  969,  979,  980,  990,  991, 1001, 1002, 1012, 1013, 1023, 1024, 1034, 1035, 1045
 1046, 1056, 1057, 1067, 1068, 1078, 1079, 1089, 1090, 1100, 1101, 1111, 1112, 1122, 1123, 1133
 1134, 1144, 1145, 1155, 1156, 1166, 1167, 1177, 1178, 1188, 1189, 1199, 1200, 1210, 1211, 1221
 1222, 1232, 1233, 1243, 1244, 1254, 1255, 1265, 1266, 1276, 1277, 1287, 1288, 1298, 1299, 1309
 1310, 1320, 1321, 1331, 1332, 1342, 1343, 1353, 1354, 1364, 1365, 1375, 1376, 1386, 1387, 1397
 1398, 1408, 1409, 1419, 1420, 1430, 1431, 1441, 1442, 1452, 1453, 1463, 1464, 1474, 1475, 1485
 1486, 1496, 1497, 1507, 1508, 1518, 1519, 1529, 1530, 1540, 1541, 1551, 1552, 1562, 1563, 1573
 1574, 1584, 1585, 1595, 1596, 1606, 1607, 1617, 1618, 1628, 1629, 1639, 1640, 1650, 1651, 1661
** ... 8 like lines cut
*Nset, nset=Outside, instance=BeamSlice-4
    1,    2,    3,    4,    5,    6,    7,    8,    9,   10,   11,   12,   13,   14,   15,   16
   17,   18,   19,   20,   21,   22,   23,   33,   34,   44,   45,   55,   56,   66,   67,   77
   78,   88,   89,   99,  100,  110,  111,  121,  122,  132,  133,  143,  144,  154,  155,  165
  166,  176,  177,  187,  188,  198,  199,  209,  210,  220,  221,  231,  232,  242,  243,  253
  254,  264,  265,  275,  276,  286,  287,  297,  298,  308,  309,  319,  320,  330,  331,  341
  342,  352,  353,  363,  364,  374,  375,  385,  386,  396,  397,  407,  408,  418,  419,  429
  430,  440,  441,  451,  452,  462,  463,  473,  474,  484,  485,  495,  496,  506,  507,  517
  518,  528,  529,  539,  540,  550,  551,  561,  562,  572,  573,  583,  584,  594,  595,  605
  606,  616,  617,  627,  628,  638,  639,  649,  650,  660,  661,  671,  672,  682,  683,  693
  694,  704,  705,  715,  716,  726,  727,  737,  738,  748,  749,  759,  760,  770,  771,  781
  782,  792,  793,  803,  804,  814,  815,  825,  826,  836,  837,  847,  848,  858,  859,  869
  870,  880,  881,  891,  892,  902,  903,  913,  914,  924,  925,  935,  936,  946,  947,  957
  958,  968,  969,  979,  980,  990,  991, 1001, 1002, 1012, 1013, 1023, 1024, 1034, 1035, 1045
 1046, 1056, 1057, 1067, 1068, 1078, 1079, 1089, 1090, 1100, 1101, 1111, 1112, 1122, 1123, 1133
 1134, 1144, 1145, 1155, 1156, 1166, 1167, 1177, 1178, 1188, 1189, 1199, 1200, 1210, 1211, 1221
 1222, 1232, 1233, 1243, 1244, 1254, 1255, 1265, 1266, 1276, 1277, 1287, 1288, 1298, 1299, 1309
 1310, 1320, 1321, 1331, 1332, 1342, 1343, 1353, 1354, 1364, 1365, 1375, 1376, 1386, 1387, 1397
 1398, 1408, 1409, 1419, 1420, 1430, 1431, 1441, 1442, 1452, 1453, 1463, 1464, 1474, 1475, 1485
 1486, 1496, 1497, 1507, 1508, 1518, 1519, 1529, 1530, 1540, 1541, 1551, 1552, 1562, 1563, 1573
 1574, 1584, 1585, 1595, 1596, 1606, 1607, 1617, 1618, 1628, 1629, 1639, 1640, 1650, 1651, 1661
** ... 8 like lines cut
*Nset, nset=Outside, instance=BeamSlice-8
    1,    2,    3,    4,    5,    6,    7,    8,    9,   10,   11,   12,   13,   14,   15,   16
   17,   18,   19,   20,   21,   22,   23,   33,   34,   44,   45,   55,   56,   66,   67,   77
   78,   88,   89,   99,  100,  110,  111,  121,  122,  132,  133,  143,  144,  154,  155,  165
  166,  176,  177,  187,  188,  198,  199,  209,  210,  220,  221,  231,  232,  242,  243,  253
  254,  264,  265,  275,  276,  286,  287,  297,  298,  308,  309,  319,  320,  330,  331,  341
  342,  352,  353,  363,  364,  374,  375,  385,  386,  396,  397,  407,  408,  418,  419,  429
  430,  440,  441,  451,  452,  462,  463,  473,  474,  484,  485,  495,  496,  506,  507,  517
  518,  528,  529,  539,  540,  550,  551,  561,  562,  572,  573,  583,  584,  594,  595,  605
  606,  616,  617,  627,  628,  638,  639,  649,  650,  660,  661,  671,  672,  682,  683,  693
  694,  704,  705,  715,  716,  726,  727,  737,  738,  748,  749,  759,  760,  770,  771,  781
  782,  792,  793,  803,  804,  814,  815,  825,  826,  836,  837,  847,  848,  858,  859,  869
  870,  880,  881,  891,  892,  902,  903,  913,  914,  924,  925,  935,  936,  946,  947,  957
  958,  968,  969,  979,  980,  990,  991, 1001, 1002, 1012, 1013, 1023, 1024, 1034, 1035, 1045
 1046, 1056, 1057, 1067, 1068, 1078, 1079, 1089, 1090, 1100, 1101, 1111, 1112, 1122, 1123, 1133
 1134, 1144, 1145, 1155, 1156, 1166, 1167, 1177, 1178, 1188, 1189, 1199, 1200, 1210, 1211, 1221
 1222, 1232, 1233, 1243, 1244, 1254, 1255, 1265, 1266, 1276, 1277, 1287, 1288, 1298, 1299, 1309
 1310, 1320, 1321, 1331, 1332, 1342, 1343, 1353, 1354, 1364, 1365, 1375, 1376, 1386, 1387, 1397
 1398, 1408, 1409, 1419, 1420, 1430, 1431, 1441, 1442, 1452, 1453, 1463, 1464, 1474, 1475, 1485
 1486, 1496, 1497, 1507, 1508, 1518, 1519, 1529, 1530, 1540, 1541, 1551, 1552, 1562, 1563, 1573
 1574, 1584, 1585, 1595, 1596, 1606, 1607, 1617, 1618, 1628, 1629, 1639, 1640, 1650, 1651, 1661
** ... 8 like lines cut
*Nset, nset=Outside, instance=BeamSlice-6
    1,    2,    3,    4,    5,    6,    7,    8,    9,   10,   11,   12,   13,   14,   15,   16
   17,   18,   19,   20,   21,   22,   23,   33,   34,   44,   45,   55,   56,   66,   67,   77
   78,   88,   89,   99,  100,  110,  111,  121,  122,  132,  133,  143,  144,  154,  155,  165
  166,  176,  177,  187,  188,  198,  199,  209,  210,  220,  221,  231,  232,  242,  243,  253
  254,  264,  265,  275,  276,  286,  287,  297,  298,  308,  309,  319,  320,  330,  331,  341
  342,  352,  353,  363,  364,  374,  375,  385,  386,  396,  397,  407,  408,  418,  419,  429
  430,  440,  441,  451,  452,  462,  463,  473,  474,  484,  485,  495,  496,  506,  507,  517
  518,  528,  529,  539,  540,  550,  551,  561,  562,  572,  573,  583,  584,  594,  595,  605
  606,  616,  617,  627,  628,  638,  639,  649,  650,  660,  661,  671,  672,  682,  683,  693
  694,  704,  705,  715,  716,  726,  727,  737,  738,  748,  749,  759,  760,  770,  771,  781
  782,  792,  793,  803,  804,  814,  815,  825,  826,  836,  837,  847,  848,  858,  859,  869
  870,  880,  881,  891,  892,  902,  903,  913,  914,  924,  925,  935,  936,  946,  947,  957
  958,  968,  969,  979,  980,  990,  991, 1001, 1002, 1012, 1013, 1023, 1024, 1034, 1035, 1045
 1046, 1056, 1057, 1067, 1068, 1078, 1079, 1089, 1090, 1100, 1101, 1111, 1112, 1122, 1123, 1133
 1134, 1144, 1145, 1155, 1156, 1166, 1167, 1177, 1178, 1188, 1189, 1199, 1200, 1210, 1211, 1221
 1222, 1232, 1233, 1243, 1244, 1254, 1255, 1265, 1266, 1276, 1277, 1287, 1288, 1298, 1299, 1309
 1310, 1320, 1321, 1331, 1332, 1342, 1343, 1353, 1354, 1364, 1365, 1375, 1376, 1386, 1387, 1397
 1398, 1408, 1409, 1419, 1420, 1430, 1431, 1441, 1442, 1452, 1453, 1463, 1464, 1474, 1475, 1485
 1486, 1496, 1497, 1507, 1508, 1518, 1519, 1529, 1530, 1540, 1541, 1551, 1552, 1562, 1563, 1573
 1574, 1584, 1585, 1595, 1596, 1606, 1607, 1617, 1618, 1628, 1629, 1639, 1640, 1650, 1651, 1661
** ... 8 like lines cut
*Nset, nset=Outside, instance=BeamSlice-10
    1,    2,    3,    4,    5,    6,    7,    8,    9,   10,   11,   12,   13,   14,   15,   16
   17,   18,   19,   20,   21,   22,   23,   24,   25,   26,   27,   28,   29,   30,   31,   32
   33,   34,   44,   45,   46,   47,   48,   49,   50,   51,   52,   53,   54,   55,   56,   66
   67,   68,   69,   70,   71,   72,   73,   74,   75,   76,   77,   78,   88,   89,   90,   91
   92,   93,   94,   95,   96,   97,   98,   99,  100,  110,  111,  112,  113,  114,  115,  116
  117,  118,  119,  120,  121,  122,  132,  133,  134,  135,  136,  137,  138,  139,  140,  141
  142,  143,  144,  154,  155,  156,  157,  158,  159,  160,  161,  162,  163,  164,  165,  166
  176,  177,  178,  179,  180,  181,  182,  183,  184,  185,  186,  187,  188,  198,  199,  200
  201,  202,  203,  204,  205,  206,  207,  208,  209,  210,  220,  221,  222,  223,  224,  225
  226,  227,  228,  229,  230,  231,  232,  242,  243,  244,  245,  246,  247,  248,  249,  250
  251,  252,  253,  254,  264,  265,  266,  267,  268,  269,  270,  271,  272,  273,  274,  275
  276,  286,  287,  288,  289,  290,  291,  292,  293,  294,  295,  296,  297,  298,  308,  309
  310,  311,  312,  313,  314,  315,  316,  317,  318,  319,  320,  330,  331,  332,  333,  334
  335,  336,  337,  338,  339,  340,  341,  342,  352,  353,  354,  355,  356,  357,  358,  359
  360,  361,  362,  363,  364,  374,  375,  376,  377,  378,  379,  380,  381,  382,  383,  384
  385,  386,  396,  397,  398,  399,  400,  401,  402,  403,  404,  405,  406,  407,  408,  418
  419,  420,  421,  422,  423,  424,  425,  426,  427,  428,  429,  430,  440,  441,  442,  443
  444,  445,  446,  447,  448,  449,  450,  451,  452,  462,  463,  464,  465,  466,  467,  468
  469,  470,  471,  472,  473,  474,  484,  485,  486,  487,  488,  489,  490,  491,  492,  493
  494,  495,  496,  506,  507,  508,  509,  510,  511,  512,  513,  514,  515,  516,  517,  518
** ... 64 like lines cut
*Nset, nset=Outside, instance=BeamSlice-3
    1,    2,    3,    4,    5,    6,    7,    8,    9,   10,   11,   12,   13,   14,   15,   16
   17,   18,   19,   20,   21,   22,   23,   33,   34,   44,   45,   55,   56,   66,   67,   77
   78,   88,   89,   99,  100,  110,  111,  121,  122,  132,  133,  143,  144,  154,  155,  165
  166,  176,  177,  187,  188,  198,  199,  209,  210,  220,  221,  231,  232,  242,  243,  253
  254,  264,  265,  275,  276,  286,  287,  297,  298,  308,  309,  319,  320,  330,  331,  341
  342,  352,  353,  363,  364,  374,  375,  385,  386,  396,  397,  407,  408,  418,  419,  429
  430,  440,  441,  451,  452,  462,  463,  473,  474,  484,  485,  495,  496,  506,  507,  517
  518,  528,  529,  539,  540,  550,  551,  561,  562,  572,  573,  583,  584,  594,  595,  605
  606,  616,  617,  627,  628,  638,  639,  649,  650,  660,  661,  671,  672,  682,  683,  693
  694,  704,  705,  715,  716,  726,  727,  737,  738,  748,  749,  759,  760,  770,  771,  781
  782,  792,  793,  803,  804,  814,  815,  825,  826,  836,  837,  847,  848,  858,  859,  869
  870,  880,  881,  891,  892,  902,  903,  913,  914,  924,  925,  935,  936,  946,  947,  957
  958,  968,  969,  979,  980,  990,  991, 1001, 1002, 1012, 1013, 1023, 1024, 1034, 1035, 1045
 1046, 1056, 1057, 1067, 1068, 1078, 1079, 1089, 1090, 1100, 1101, 1111, 1112, 1122, 1123, 1133
 1134, 1144, 1145, 1155, 1156, 1166, 1167, 1177, 1178, 1188, 1189, 1199, 1200, 1210, 1211, 1221
 1222, 1232, 1233, 1243, 1244, 1254, 1255, 1265, 1266, 1276, 1277, 1287, 1288, 1298, 1299, 1309
 1310, 1320, 1321, 1331, 1332, 1342, 1343, 1353, 1354, 1364, 1365, 1375, 1376, 1386, 1387, 1397
 1398, 1408, 1409, 1419, 1420, 1430, 1431, 1441, 1442, 1452, 1453, 1463, 1464, 1474, 1475, 1485
 1486, 1496, 1497, 1507, 1508, 1518, 1519, 1529, 1530, 1540, 1541, 1551, 1552, 1562, 1563, 1573
 1574, 1584, 1585, 1595, 1596, 1606, 1607, 1617, 1618, 1628, 1629, 1639, 1640, 1650, 1651, 1661
** ... 8 like lines cut
*Nset, nset=Outside, instance=BeamSlice-5
    1,    2,    3,    4,    5,    6,    7,    8,    9,   10,   11,   12,   13,   14,   15,   16
   17,   18,   19,   20,   21,   22,   23,   33,   34,   44,   45,   55,   56,   66,   67,   77
   78,   88,   89,   99,  100,  110,  111,  121,  122,  132,  133,  143,  144,  154,  155,  165
  166,  176,  177,  187,  188,  198,  199,  209,  210,  220,  221,  231,  232,  242,  243,  253
  254,  264,  265,  275,  276,  286,  287,  297,  298,  308,  309,  319,  320,  330,  331,  341
  342,  352,  353,  363,  364,  374,  375,  385,  386,  396,  397,  407,  408,  418,  419,  429
  430,  440,  441,  451,  452,  462,  463,  473,  474,  484,  485,  495,  496,  506,  507,  517
  518,  528,  529,  539,  540,  550,  551,  561,  562,  572,  573,  583,  584,  594,  595,  605
  606,  616,  617,  627,  628,  638,  639,  649,  650,  660,  661,  671,  672,  682,  683,  693
  694,  704,  705,  715,  716,  726,  727,  737,  738,  748,  749,  759,  760,  770,  771,  781
  782,  792,  793,  803,  804,  814,  815,  825,  826,  836,  837,  847,  848,  858,  859,  869
  870,  880,  881,  891,  892,  902,  903,  913,  914,  924,  925,  935,  936,  946,  947,  957
  958,  968,  969,  979,  980,  990,  991, 1001, 1002, 1012, 1013, 1023, 1024, 1034, 1035, 1045
 1046, 1056, 1057, 1067, 1068, 1078, 1079, 1089, 1090, 1100, 1101, 1111, 1112, 1122, 1123, 1133
 1134, 1144, 1145, 1155, 1156, 1166, 1167, 1177, 1178, 1188, 1189, 1199, 1200, 1210, 1211, 1221
 1222, 1232, 1233, 1243, 1244, 1254, 1255, 1265, 1266, 1276, 1277, 1287, 1288, 1298, 1299, 1309
 1310, 1320, 1321, 1331, 1332, 1342, 1343, 1353, 1354, 1364, 1365, 1375, 1376, 1386, 1387, 1397
 1398, 1408, 1409, 1419, 1420, 1430, 1431, 1441, 1442, 1452, 1453, 1463, 1464, 1474, 1475, 1485
 1486, 1496, 1497, 1507, 1508, 1518, 1519, 1529, 1530, 1540, 1541, 1551, 1552, 1562, 1563, 1573
 1574, 1584, 1585, 1595, 1596, 1606, 1607, 1617, 1618, 1628, 1629, 1639, 1640, 1650, 1651, 1661
** ... 8 like lines cut
*Nset, nset=Outside, instance=BeamSlice-9
    1,    2,    3,    4,    5,    6,    7,    8,    9,   10,   11,   12,   13,   14,   15,   16
   17,   18,   19,   20,   21,   22,   23,   33,   34,   44,   45,   55,   56,   66,   67,   77
   78,   88,   89,   99,  100,  110,  111,  121,  122,  132,  133,  143,  144,  154,  155,  165
  166,  176,  177,  187,  188,  198,  199,  209,  210,  220,  221,  231,  232,  242,  243,  253
  254,  264,  265,  275,  276,  286,  287,  297,  298,  308,  309,  319,  320,  330,  331,  341
  342,  352,  353,  363,  364,  374,  375,  385,  386,  396,  397,  407,  408,  418,  419,  429
  430,  440,  441,  451,  452,  462,  463,  473,  474,  484,  485,  495,  496,  506,  507,  517
  518,  528,  529,  539,  540,  550,  551,  561,  562,  572,  573,  583,  584,  594,  595,  605
  606,  616,  617,  627,  628,  638,  639,  649,  650,  660,  661,  671,  672,  682,  683,  693
  694,  704,  705,  715,  716,  726,  727,  737,  738,  748,  749,  759,  760,  770,  771,  781
  782,  792,  793,  803,  804,  814,  815,  825,  826,  836,  837,  847,  848,  858,  859,  869
  870,  880,  881,  891,  892,  902,  903,  913,  914,  924,  925,  935,  936,  946,  947,  957
  958,  968,  969,  979,  980,  990,  991, 1001, 1002, 1012, 1013, 1023, 1024, 1034, 1035, 1045
 1046, 1056, 1057, 1067, 1068, 1078, 1079, 1089, 1090, 1100, 1101, 1111, 1112, 1122, 1123, 1133
 1134, 1144, 1145, 1155, 1156, 1166, 1167, 1177, 1178, 1188, 1189, 1199, 1200, 1210, 1211, 1221
 1222, 1232, 1233, 1243, 1244, 1254, 1255, 1265, 1266, 1276, 1277, 1287, 1288, 1298, 1299, 1309
 1310, 1320, 1321, 1331, 1332, 1342, 1343, 1353, 1354, 1364, 1365, 1375, 1376, 1386, 1387, 1397
 1398, 1408, 1409, 1419, 1420, 1430, 1431, 1441, 1442, 1452, 1453, 1463, 1464, 1474, 1475, 1485
 1486, 1496, 1497, 1507, 1508, 1518, 1519, 1529, 1530, 1540, 1541, 1551, 1552, 1562, 1563, 1573
 1574, 1584, 1585, 1595, 1596, 1606, 1607, 1617, 1618, 1628, 1629, 1639, 1640, 1650, 1651, 1661
** ... 8 like lines cut
*Nset, nset=Outside, instance=BeamSlice-7
    1,    2,    3,    4,    5,    6,    7,    8,    9,   10,   11,   12,   13,   14,   15,   16
   17,   18,   19,   20,   21,   22,   23,   33,   34,   44,   45,   55,   56,   66,   67,   77
   78,   88,   89,   99,  100,  110,  111,  121,  122,  132,  133,  143,  144,  154,  155,  165
  166,  176,  177,  187,  188,  198,  199,  209,  210,  220,  221,  231,  232,  242,  243,  253
  254,  264,  265,  275,  276,  286,  287,  297,  298,  308,  309,  319,  320,  330,  331,  341
  342,  352,  353,  363,  364,  374,  375,  385,  386,  396,  397,  407,  408,  418,  419,  429
  430,  440,  441,  451,  452,  462,  463,  473,  474,  484,  485,  495,  496,  506,  507,  517
  518,  528,  529,  539,  540,  550,  551,  561,  562,  572,  573,  583,  584,  594,  595,  605
  606,  616,  617,  627,  628,  638,  639,  649,  650,  660,  661,  671,  672,  682,  683,  693
  694,  704,  705,  715,  716,  726,  727,  737,  738,  748,  749,  759,  760,  770,  771,  781
  782,  792,  793,  803,  804,  814,  815,  825,  826,  836,  837,  847,  848,  858,  859,  869
  870,  880,  881,  891,  892,  902,  903,  913,  914,  924,  925,  935,  936,  946,  947,  957
  958,  968,  969,  979,  980,  990,  991, 1001, 1002, 1012, 1013, 1023, 1024, 1034, 1035, 1045
 1046, 1056, 1057, 1067, 1068, 1078, 1079, 1089, 1090, 1100, 1101, 1111, 1112, 1122, 1123, 1133
 1134, 1144, 1145, 1155, 1156, 1166, 1167, 1177, 1178, 1188, 1189, 1199, 1200, 1210, 1211, 1221
 1222, 1232, 1233, 1243, 1244, 1254, 1255, 1265, 1266, 1276, 1277, 1287, 1288, 1298, 1299, 1309
 1310, 1320, 1321, 1331, 1332, 1342, 1343, 1353, 1354, 1364, 1365, 1375, 1376, 1386, 1387, 1397
 1398, 1408, 1409, 1419, 1420, 1430, 1431, 1441, 1442, 1452, 1453, 1463, 1464, 1474, 1475, 1485
 1486, 1496, 1497, 1507, 1508, 1518, 1519, 1529, 1530, 1540, 1541, 1551, 1552, 1562, 1563, 1573
 1574, 1584, 1585, 1595, 1596, 1606, 1607, 1617, 1618, 1628, 1629, 1639, 1640, 1650, 1651, 1661
** ... 8 like lines cut
*Elset, elset=Outside, instance=BeamSlice-1, generate
    1,  1000,     1
*Elset, elset=Outside, instance=BeamSlice-2
    1,    2,    3,    4,    5,    6,    7,    8,    9,   10,   11,   20,   21,   30,   31,   40
   41,   50,   51,   60,   61,   70,   71,   80,   81,   90,   91,  100,  101,  110,  111,  120
  121,  130,  131,  140,  141,  150,  151,  160,  161,  170,  171,  180,  181,  190,  191,  200
  201,  210,  211,  220,  221,  230,  231,  240,  241,  250,  251,  260,  261,  270,  271,  280
  281,  290,  291,  300,  301,  310,  311,  320,  321,  330,  331,  340,  341,  350,  351,  360
  361,  370,  371,  380,  381,  390,  391,  400,  401,  410,  411,  420,  421,  430,  431,  440
  441,  450,  451,  460,  461,  470,  471,  480,  481,  490,  491,  500,  501,  510,  511,  520
  521,  530,  531,  540,  541,  550,  551,  560,  561,  570,  571,  580,  581,  590,  591,  600
  601,  610,  611,  620,  621,  630,  631,  640,  641,  650,  651,  660,  661,  670,  671,  680
  681,  690,  691,  700,  701,  710,  711,  720,  721,  730,  731,  740,  741,  750,  751,  760
  761,  770,  771,  780,  781,  790,  791,  800,  801,  810,  811,  820,  821,  830,  831,  840
  841,  850,  851,  860,  861,  870,  871,  880,  881,  890,  891,  900,  901,  910,  911,  920
  921,  930,  931,  940,  941,  950,  951,  960,  961,  970,  971,  980,  981,  990,  991,  992
  993,  994,  995,  996,  997,  998,  999, 1000
*Elset, elset=Outside, instance=BeamSlice-4
    1,    2,    3,    4,    5,    6,    7,    8,    9,   10,   11,   20,   21,   30,   31,   40
   41,   50,   51,   60,   61,   70,   71,   80,   81,   90,   91,  100,  101,  110,  111,  120
  121,  130,  131,  140,  141,  150,  151,  160,  161,  170,  171,  180,  181,  190,  191,  200
  201,  210,  211,  220,  221,  230,  231,  240,  241,  250,  251,  260,  261,  270,  271,  280
  281,  290,  291,  300,  301,  310,  311,  320,  321,  330,  331,  340,  341,  350,  351,  360
  361,  370,  371,  380,  381,  390,  391,  400,  401,  410,  411,  420,  421,  430,  431,  440
  441,  450,  451,  460,  461,  470,  471,  480,  481,  490,  491,  500,  501,  510,  511,  520
  521,  530,  531,  540,  541,  550,  551,  560,  561,  570,  571,  580,  581,  590,  591,  600
  601,  610,  611,  620,  621,  630,  631,  640,  641,  650,  651,  660,  661,  670,  671,  680
  681,  690,  691,  700,  701,  710,  711,  720,  721,  730,  731,  740,  741,  750,  751,  760
  761,  770,  771,  780,  781,  790,  791,  800,  801,  810,  811,  820,  821,  830,  831,  840
  841,  850,  851,  860,  861,  870,  871,  880,  881,  890,  891,  900,  901,  910,  911,  920
  921,  930,  931,  940,  941,  950,  951,  960,  961,  970,  971,  980,  981,  990,  991,  992
  993,  994,  995,  996,  997,  998,  999, 1000
*Elset, elset=Outside, instance=BeamSlice-8
    1,    2,    3,    4,    5,    6,    7,    8,    9,   10,   11,   20,   21,   30,   31,   40
   41,   50,   51,   60,   61,   70,   71,   80,   81,   90,   91,  100,  101,  110,  111,  120
  121,  130,  131,  140,  141,  150,  151,  160,  161,  170,  171,  180,  181,  190,  191,  200
  201,  210,  211,  220,  221,  230,  231,  240,  241,  250,  251,  260,  261,  270,  271,  280
  281,  290,  291,  300,  301,  310,  311,  320,  321,  330,  331,  340,  341,  350,  351,  360
  361,  370,  371,  380,  381,  390,  391,  400,  401,  410,  411,  420,  421,  430,  431,  440
  441,  450,  451,  460,  461,  470,  471,  480,  481,  490,  491,  500,  501,  510,  511,  520
  521,  530,  531,  540,  541,  550,  551,  560,  561,  570,  571,  580,  581,  590,  591,  600
  601,  610,  611,  620,  621,  630,  631,  640,  641,  650,  651,  660,  661,  670,  671,  680
  681,  690,  691,  700,  701,  710,  711,  720,  721,  730,  731,  740,  741,  750,  751,  760
  761,  770,  771,  780,  781,  790,  791,  800,  801,  810,  811,  820,  821,  830,  831,  840
  841,  850,  851,  860,  861,  870,  871,  880,  881,  890,  891,  900,  901,  910,  911,  920
  921,  930,  931,  940,  941,  950,  951,  960,  961,  970,  971,  980,  981,  990,  991,  992
  993,  994,  995,  996,  997,  998,  999, 1000
*Elset, elset=Outside, instance=BeamSlice-6
    1,    2,    3,    4,    5,    6,    7,    8,    9,   10,   11,   20,   21,   30,   31,   40
   41,   50,   51,   60,   61,   70,   71,   80,   81,   90,   91,  100,  101,  110,  111,  120
  121,  130,  131,  140,  141,  150,  151,  160,  161,  170,  171,  180,  181,  190,  191,  200
  201,  210,  211,  220,  221,  230,  231,  240,  241,  250,  251,  260,  261,  270,  271,  280
  281,  290,  291,  300,  301,  310,  311,  320,  321,  330,  331,  340,  341,  350,  351,  360
  361,  370,  371,  380,  381,  390,  391,  400,  401,  410,  411,  420,  421,  430,  431,  440
  441,  450,  451,  460,  461,  470,  471,  480,  481,  490,  491,  500,  501,  510,  511,  520
  521,  530,  531,  540,  541,  550,  551,  560,  561,  570,  571,  580,  581,  590,  591,  600
  601,  610,  611,  620,  621,  630,  631,  640,  641,  650,  651,  660,  661,  670,  671,  680
  681,  690,  691,  700,  701,  710,  711,  720,  721,  730,  731,  740,  741,  750,  751,  760
  761,  770,  771,  780,  781,  790,  791,  800,  801,  810,  811,  820,  821,  830,  831,  840
  841,  850,  851,  860,  861,  870,  871,  880,  881,  890,  891,  900,  901,  910,  911,  920
  921,  930,  931,  940,  941,  950,  951,  960,  961,  970,  971,  980,  981,  990,  991,  992
  993,  994,  995,  996,  997,  998,  999, 1000
*Elset, elset=Outside, instance=BeamSlice-10, generate
    1,  1000,     1
*Elset, elset=Outside, instance=BeamSlice-3
    1,    2,    3,    4,    5,    6,    7,    8,    9,   10,   11,   20,   21,   30,   31,   40
   41,   50,   51,   60,   61,   70,   71,   80,   81,   90,   91,  100,  101,  110,  111,  120
  121,  130,  131,  140,  141,  150,  151,  160,  161,  170,  171,  180,  181,  190,  191,  200
  201,  210,  211,  220,  221,  230,  231,  240,  241,  250,  251,  260,  261,  270,  271,  280
  281,  290,  291,  300,  301,  310,  311,  320,  321,  330,  331,  340,  341,  350,  351,  360
  361,  370,  371,  380,  381,  390,  391,  400,  401,  410,  411,  420,  421,  430,  431,  440
  441,  450,  451,  460,  461,  470,  471,  480,  481,  490,  491,  500,  501,  510,  511,  520
  521,  530,  531,  540,  541,  550,  551,  560,  561,  570,  571,  580,  581,  590,  591,  600
  601,  610,  611,  620,  621,  630,  631,  640,  641,  650,  651,  660,  661,  670,  671,  680
  681,  690,  691,  700,  701,  710,  711,  720,  721,  730,  731,  740,  741,  750,  751,  760
  761,  770,  771,  780,  781,  790,  791,  800,  801,  810,  811,  820,  821,  830,  831,  840
  841,  850,  851,  860,  861,  870,  871,  880,  881,  890,  891,  900,  901,  910,  911,  920
  921,  930,  931,  940,  941,  950,  951,  960,  961,  970,  971,  980,  981,  990,  991,  992
  993,  994,  995,  996,  997,  998,  999, 1000
*Elset, elset=Outside, instance=BeamSlice-5
    1,    2,    3,    4,    5,    6,    7,    8,    9,   10,   11,   20,   21,   30,   31,   40
   41,   50,   51,   60,   61,   70,   71,   80,   81,   90,   91,  100,  101,  110,  111,  120
  121,  130,  131,  140,  141,  150,  151,  160,  161,  170,  171,  180,  181,  190,  191,  200
  201,  210,  211,  220,  221,  230,  231,  240,  241,  250,  251,  260,  261,  270,  271,  280
  281,  290,  291,  300,  301,  310,  311,  320,  321,  330,  331,  340,  341,  350,  351,  360
  361,  370,  371,  380,  381,  390,  391,  400,  401,  410,  411,  420,  421,  430,  431,  440
  441,  450,  451,  460,  461,  470,  471,  480,  481,  490,  491,  500,  501,  510,  511,  520
  521,  530,  531,  540,  541,  550,  551,  560,  561,  570,  571,  580,  581,  590,  591,  600
  601,  610,  611,  620,  621,  630,  631,  640,  641,  650,  651,  660,  661,  670,  671,  680
  681,  690,  691,  700,  701,  710,  711,  720,  721,  730,  731,  740,  741,  750,  751,  760
  761,  770,  771,  780,  781,  790,  791,  800,  801,  810,  811,  820,  821,  830,  831,  840
  841,  850,  851,  860,  861,  870,  871,  880,  881,  890,  891,  900,  901,  910,  911,  920
  921,  930,  931,  940,  941,  950,  951,  960,  961,  970,  971,  980,  981,  990,  991,  992
  993,  994,  995,  996,  997,  998,  999, 1000
*Elset, elset=Outside, instance=BeamSlice-9
    1,    2,    3,    4,    5,    6,    7,    8,    9,   10,   11,   20,   21,   30,   31,   40
   41,   50,   51,   60,   61,   70,   71,   80,   81,   90,   91,  100,  101,  110,  111,  120
  121,  130,  131,  140,  141,  150,  151,  160,  161,  170,  171,  180,  181,  190,  191,  200
  201,  210,  211,  220,  221,  230,  231,  240,  241,  250,  251,  260,  261,  270,  271,  280
  281,  290,  291,  300,  301,  310,  311,  320,  321,  330,  331,  340,  341,  350,  351,  360
  361,  370,  371,  380,  381,  390,  391,  400,  401,  410,  411,  420,  421,  430,  431,  440
  441,  450,  451,  460,  461,  470,  471,  480,  481,  490,  491,  500,  501,  510,  511,  520
  521,  530,  531,  540,  541,  550,  551,  560,  561,  570,  571,  580,  581,  590,  591,  600
  601,  610,  611,  620,  621,  630,  631,  640,  641,  650,  651,  660,  661,  670,  671,  680
  681,  690,  691,  700,  701,  710,  711,  720,  721,  730,  731,  740,  741,  750,  751,  760
  761,  770,  771,  780,  781,  790,  791,  800,  801,  810,  811,  820,  821,  830,  831,  840
  841,  850,  851,  860,  861,  870,  871,  880,  881,  890,  891,  900,  901,  910,  911,  920
  921,  930,  931,  940,  941,  950,  951,  960,  961,  970,  971,  980,  981,  990,  991,  992
  993,  994,  995,  996,  997,  998,  999, 1000
*Elset, elset=Outside, instance=BeamSlice-7
    1,    2,    3,    4,    5,    6,    7,    8,    9,   10,   11,   20,   21,   30,   31,   40
   41,   50,   51,   60,   61,   70,   71,   80,   81,   90,   91,  100,  101,  110,  111,  120
  121,  130,  131,  140,  141,  150,  151,  160,  161,  170,  171,  180,  181,  190,  191,  200
  201,  210,  211,  220,  221,  230,  231,  240,  241,  250,  251,  260,  261,  270,  271,  280
  281,  290,  291,  300,  301,  310,  311,  320,  321,  330,  331,  340,  341,  350,  351,  360
  361,  370,  371,  380,  381,  390,  391,  400,  401,  410,  411,  420,  421,  430,  431,  440
  441,  450,  451,  460,  461,  470,  471,  480,  481,  490,  491,  500,  501,  510,  511,  520
  521,  530,  531,  540,  541,  550,  551,  560,  561,  570,  571,  580,  581,  590,  591,  600
  601,  610,  611,  620,  621,  630,  631,  640,  641,  650,  651,  660,  661,  670,  671,  680
  681,  690,  691,  700,  701,  710,  711,  720,  721,  730,  731,  740,  741,  750,  751,  760
  761,  770,  771,  780,  781,  790,  791,  800,  801,  810,  811,  820,  821,  830,  831,  840
  841,  850,  851,  860,  861,  870,  871,  880,  881,  890,  891,  900,  901,  910,  911,  920
  921,  930,  931,  940,  941,  950,  951,  960,  961,  970,  971,  980,  981,  990,  991,  992
  993,  994,  995,  996,  997,  998,  999, 1000
*Nset, nset=RP1
 1,
*Nset, nset=SupportRPs
 2, 3
*Nset, nset=_PickedSet267, internal
 1,
*Nset, nset=_PickedSet269, internal
 2,
*Nset, nset=_PickedSet271, internal
 3,
** Constraint: Pin
*Rigid Body, ref node=_PickedSet267, analytical surface=Pin-1.Surf-1
** Constraint: Sup1
*Rigid Body, ref node=_PickedSet269, analytical surface=Support-1.Surf-2
** Constraint: Sup2
*Rigid Body, ref node=_PickedSet271, analytical surface=Support-2.Surf-3
** Constraint: Embed-1
*Embedded Element, host elset=HOST
ALLFIBERS
*End Assembly
** 
** MATERIALS
** 
*Material, name=DYNEEMA_CHOCRON
*Damage Initiation, criterion=DUCTILE
 0.1, 0.333333,     0.01
*Damage Evolution, type=ENERGY, softening=EXPONENTIAL
1460.,
*Density
980.,
*Elastic
 7e+08, 0.45
*Plastic
 7e+07,0.
*Material, name=FIBERS
*Density
981.,
*Elastic
 2e+08, 0.3
*Material, name=FIBERS_CHOCRON
*Damage Initiation, criterion=DUCTILE
 0.035,   0., 0.01
*Damage Evolution, type=ENERGY
1.,
*Density
981.,
*Elastic
 1.35e+11, 0.45
*Plastic
 3.8e+09,0.
*Rate Dependent
1., 0.08
*Material, name=FIBERS_FAIL
*Damage Initiation, criterion=DUCTILE
 0.03,   0., 0.01
*Damage Evolution, type=ENERGY
1.,
*Density
981.,
*Elastic
 2e+08, 0.3
*Plastic
 2.5e+09,0.
*Rate Dependent
1., 0.08
**  Properties from Matweb: AISI Type M50 Tool Steel
*Material, name=M50_TOOLSTEEL
*Damage Initiation, criterion=DUCTILE
 0.198, 0.33333,  0.0002
*Damage Evolution, type=ENERGY, softening=EXPONENTIAL
210000.,
*Density
7970.,
*Elastic
 2.034e+11, 0.3
*Plastic
 1.894e+09,0.
*Material, name=MATRIX_UTOMO
*Density
308.,
*Elastic, type=ENGINEERING CONSTANTS
 4.04e+10,  4.04e+10, 4.271e+09,      0.02,      0.06,      0.06,     9e+08,     4e+08
     4e+08,
** 
** INTERACTION PROPERTIES
** 
*Surface Interaction, name=Hazzard_Dyneema
*Cohesive Behavior
 6e+10, 3e+10, 3e+10
*Damage Initiation, criterion=MAXS
 1.2e+06, 1.8e+06, 1.8e+06
*Damage Evolution, type=ENERGY, mixed mode behavior=POWER LAW, power=2.
544.,1088.,1088.
*Surface Interaction, name=INTPROP-1
*Friction
 0.42,
** 
** BOUNDARY CONDITIONS
** 
** Name: Supports Type: Displacement/Rotation
*Boundary
SupportRPs, 1, 1
SupportRPs, 2, 2
SupportRPs, 3, 3
SupportRPs, 4, 4
SupportRPs, 5, 5
SupportRPs, 6, 6
** ----------------------------------------------------------------
** 
** STEP: Step-1
** 
*Step, name=Step-1, nlgeom=YES
*Dynamic, Explicit
, 0.1
*Bulk Viscosity
0.06, 1.2
** 
** BOUNDARY CONDITIONS
** 
** Name: AppliedVel Type: Velocity/Angular velocity
*Boundary, type=VELOCITY
RP1, 1, 1
RP1, 2, 2
RP1, 3, 3, -0.000283333
RP1, 4, 4
RP1, 5, 5
RP1, 6, 6
** 
** INTERACTIONS
** 
** Interaction: general_contact
*Contact, op=NEW
*Contact Inclusions, ALL EXTERIOR
*Contact Property Assignment
 ,  , INTPROP-1
BeamSlice-1.Front , BeamSlice-2.Back , Hazzard_Dyneema
BeamSlice-2.Front , BeamSlice-3.Back , Hazzard_Dyneema
BeamSlice-3.Front , BeamSlice-4.Back , Hazzard_Dyneema
BeamSlice-4.Front , BeamSlice-5.Back , Hazzard_Dyneema
BeamSlice-5.Front , BeamSlice-6.Back , Hazzard_Dyneema
BeamSlice-6.Front , BeamSlice-7.Back , Hazzard_Dyneema
BeamSlice-7.Front , BeamSlice-8.Back , Hazzard_Dyneema
BeamSlice-8.Front , BeamSlice-9.Back , Hazzard_Dyneema
BeamSlice-9.Front , BeamSlice-10.Back , Hazzard_Dyneema
** 
** OUTPUT REQUESTS
** 
*Restart, write, number interval=1, time marks=NO
** 
** FIELD OUTPUT: F-Output-1
** 
*Output, field, number interval=200
*Node Output
A, U, V
** 
** FIELD OUTPUT: F-Output-2
** 
*Element Output, directions=YES
CFAILURE, DMICRT, ER, LE, MISES, PE, PEEQ, S, SDEG, SEQUT, STATUS
** 
** FIELD OUTPUT: F-Output-3
** 
*Contact Output
CSTATUS, CSTRESS
** 
** HISTORY OUTPUT: H-Output-1
** 
*Output, history, variable=PRESELECT
*End Step
