*Heading
** Job name: DyneemaPlate-Plastic Model name: DyneemaPlate-Plastic
** Generated by: Abaqus/CAE 2021
*Preprint, echo=NO, model=NO, history=NO, contact=NO
**
** PARTS
**
*Part, name=SteelProjectile
*Node
      1, 0.00260637561, -0.00301579502, 0.00260637561
      2,           0., 0.00476250006,           0.
      3,           0., -0.00476250006,           0.
      4,           0., -0.00301579502, 0.00368597172
      5, 0.00368597172, -0.00301579502,           0.
      6,           0., 0.00424308376,           0.
      7,           0., 0.00373797258,           0.
      8,           0., 0.00323740346,           0.
      9,           0., 0.00273847999,           0.
     10,           0., 0.00224014977,           0.
     11,           0., 0.00174203201,           0.
     12,           0., 0.00124399003,           0.
     13,           0., 0.000745975005,           0.
     14,           0., 0.00024796935,           0.
     15,           0., -0.000250032113,           0.
     16,           0., -0.000748031714,           0.
     17,           0., -0.00124602823,           0.
     18,           0., -0.00174401852,           0.
     19,           0., -0.00224199868,           0.
     20,           0., -0.00273996824,           0.
** ... 2405 like lines cut
*Element, type=C3D8R
  1,  139,  121,  122,  140,  894,  876,  877,  895
  2,  121,  139,   48,   49,  876,  894,  447,  448
  3,  123,  141,  140,  122,  878,  896,  895,  877
  4,  220,  181,  142,  173,  975,  936,  897,  928
  5,  146,  126,  127,  147,  901,  881,  882,  902
  6,  192,  187,  181,  221,  947,  942,  936,  976
  7,  172,  145,   43,   44,  927,  900,  442,  443
  8,  144,  143,  124,  125,  899,  898,  879,  880
  9,  171,  188,  179,  148,  926,  943,  934,  903
 10,  171,  148,   41,   42,  926,  903,  440,  441
 11,  170,  150,   39,   40,  925,  905,  438,  439
 12,  128,  149,  147,  127,  883,  904,  902,  882
 13,  189,  202,  203,  182,  944,  957,  958,  937
 14,  168,  189,  182,  153,  923,  944,  937,  908
 15,  130,  152,  151,  129,  885,  907,  906,  884
 16,  167,  185,  184,  156,  922,  940,  939,  911
 17,  167,  156,   34,   35,  922,  911,  433,  434
 18,  177,  191,  211,  195,  932,  946,  966,  950
 19,  185,  205,  207,  184,  940,  960,  962,  939
 20,  135,  160,  159,  134,  890,  915,  914,  889
** ... 1876 like lines cut
*Element, type=C3D6
 949,   23,  258, 1013,    3,   24,  536
 950,   22,  259, 1014,   23,  258, 1013
 951,   21,  260, 1015,   22,  259, 1014
 952,   20,  261, 1016,   21,  260, 1015
 953,   19,  262, 1017,   20,  261, 1016
 954,   18,  263, 1018,   19,  262, 1017
 955,   17,  264, 1019,   18,  263, 1018
 956,   16,  265, 1020,   17,  264, 1019
 957,   15,  266, 1021,   16,  265, 1020
 958,   14,  267, 1022,   15,  266, 1021
 959,   13,  268, 1023,   14,  267, 1022
 960,   12,  269, 1024,   13,  268, 1023
 961,   11,  270, 1025,   12,  269, 1024
 962,   10,  271, 1026,   11,  270, 1025
 963,    9,  272, 1027,   10,  271, 1026
 964,    8,  273, 1028,    9,  272, 1027
 965,    7,  274, 1029,    8,  273, 1028
 966,    6,  275, 1030,    7,  274, 1029
 967,    2,   52,  451,    6,  275, 1030
 968,   23, 1013, 1168,    3,  536,  544
** ... 256 like lines cut
*Nset, nset=All, generate
    1,  2425,     1
*Elset, elset=All, generate
    1,  2172,     1
*Nset, nset=Set-4, generate
    1,  2425,     1
*Elset, elset=Set-4, generate
    1,  2172,     1
*Nset, nset=XSymm
   2,   3,   5,   6,   7,   8,   9,  10,  11,  12,  13,  14,  15,  16,  17,  18
  19,  20,  21,  22,  23,  92,  93,  94,  95,  96,  97,  98,  99, 100, 101, 102
 103, 104, 105, 106, 107, 108, 109, 110, 111, 112, 113, 114, 115, 116, 117, 118
 119, 120, 576, 577, 578, 579, 580, 581, 582, 583, 584, 585, 586, 587, 588, 589
 590, 591, 592, 593, 594, 595, 596, 597, 598, 599, 600, 601, 602, 603, 604, 605
 606, 607, 608, 609, 610, 611, 612, 613, 614, 615, 616, 617, 618, 619, 620, 621
 622, 623, 624, 625, 626, 627, 628, 629, 630, 631, 632, 633, 634, 635, 636, 637
 638, 639, 640, 641, 642, 643, 644, 645, 646, 647, 648, 649, 650, 651, 652, 653
 654, 655, 656, 657, 658, 659, 660, 661, 662, 663, 664, 665, 666, 667, 668, 669
 670, 671, 672, 673, 674, 675, 676, 677, 678, 679, 680, 681, 682, 683, 684, 685
 686, 687, 688, 689, 690, 691, 692, 693, 694, 695, 696, 697, 698, 699, 700, 701
 702, 703, 704, 705, 706, 707, 708, 709, 710, 711, 712, 713, 714, 715, 716, 717
 718, 719, 720, 721, 722, 723, 724, 725, 726, 727, 728, 729, 730
*Elset, elset=XSymm
 1877, 1878, 1879, 1880, 1881, 1882, 1883, 1884, 1885, 1886, 1887, 1888, 1889, 1890, 1891, 1892
 1893, 1894, 1895, 1896, 1897, 1898, 1899, 1900, 1901, 1902, 1903, 1904, 1905, 1906, 1907, 1908
 1909, 1910, 1911, 1912, 1913, 1914, 1915, 1916, 1917, 1918, 1919, 1920, 1921, 1922, 1923, 1924
 1925, 1926, 1927, 1928, 1929, 1930, 1931, 1932, 1933, 1934, 1935, 1936, 1937, 1938, 1939, 1940
 1941, 1942, 1943, 1944, 1945, 1946, 1947, 1948, 1949, 1950, 1951, 1952, 1953, 1954, 1955, 1956
 1957, 1958, 1959, 1960, 1961, 1962, 1963, 1964, 1965, 1966, 1967, 1968, 1969, 1970, 1971, 1972
 1973, 1974, 1975, 1976, 1977, 1978, 1979, 1980, 1981, 1982, 1983, 1984, 1985, 1986, 1987, 1988
 1989, 1990, 1991, 1992, 1993, 1994, 1995, 1996, 1997, 1998, 1999, 2000, 2001, 2002, 2003, 2004
 2005, 2006, 2007, 2008, 2009, 2010, 2011, 2012, 2013, 2014, 2015, 2016, 2017, 2018, 2019, 2020
 2021, 2022, 2023, 2024, 2025, 2026, 2027, 2028, 2029, 2030, 2031, 2032, 2033, 2034, 2130, 2131
 2132, 2133, 2134, 2135, 2136, 2137, 2138, 2139, 2140, 2141, 2142, 2143, 2144, 2145, 2146, 2147
 2148, 2169, 2170, 2171, 2172
*Nset, nset=YSymm
   2,   3,   4,   6,   7,   8,   9,  10,  11,  12,  13,  14,  15,  16,  17,  18
  19,  20,  21,  22,  23,  58,  59,  60,  61,  62,  63,  64,  65,  66,  67,  68
  69,  70,  71,  72,  73,  74,  75,  76,  77,  78,  79,  80,  81,  82,  83,  84
  85,  86, 276, 277, 278, 279, 280, 281, 282, 283, 284, 285, 286, 287, 288, 289
 290, 291, 292, 293, 294, 295, 296, 297, 298, 299, 300, 301, 302, 303, 304, 305
 306, 307, 308, 309, 310, 311, 312, 313, 314, 315, 316, 317, 318, 319, 320, 321
 322, 323, 324, 325, 326, 327, 328, 329, 330, 331, 332, 333, 334, 335, 336, 337
 338, 339, 340, 341, 342, 343, 344, 345, 346, 347, 348, 349, 350, 351, 352, 353
 354, 355, 356, 357, 358, 359, 360, 361, 362, 363, 364, 365, 366, 367, 368, 369
 370, 371, 372, 373, 374, 375, 376, 377, 378, 379, 380, 381, 382, 383, 384, 385
 386, 387, 388, 389, 390, 391, 392, 393, 394, 395, 396, 397, 398, 399, 400, 401
 402, 403, 404, 405, 406, 407, 408, 409, 410, 411, 412, 413, 414, 415, 416, 417
 418, 419, 420, 421, 422, 423, 424, 425, 426, 427, 428, 429, 430
*Elset, elset=YSymm
  791,  792,  793,  794,  795,  796,  797,  798,  799,  800,  801,  802,  803,  804,  805,  806
  807,  808,  809,  810,  811,  812,  813,  814,  815,  816,  817,  818,  819,  820,  821,  822
  823,  824,  825,  826,  827,  828,  829,  830,  831,  832,  833,  834,  835,  836,  837,  838
  839,  840,  841,  842,  843,  844,  845,  846,  847,  848,  849,  850,  851,  852,  853,  854
  855,  856,  857,  858,  859,  860,  861,  862,  863,  864,  865,  866,  867,  868,  869,  870
  871,  872,  873,  874,  875,  876,  877,  878,  879,  880,  881,  882,  883,  884,  885,  886
  887,  888,  889,  890,  891,  892,  893,  894,  895,  896,  897,  898,  899,  900,  901,  902
  903,  904,  905,  906,  907,  908,  909,  910,  911,  912,  913,  914,  915,  916,  917,  918
  919,  920,  921,  922,  923,  924,  925,  926,  927,  928,  929,  930,  931,  932,  933,  934
  935,  936,  937,  938,  939,  940,  941,  942,  943,  944,  945,  946,  947,  948, 1044, 1045
 1046, 1047, 1048, 1049, 1050, 1051, 1052, 1053, 1054, 1055, 1056, 1057, 1058, 1059, 1060, 1061
 1062, 1083, 1084, 1085, 1086
** Region: (Projectile:Set-4), (Controls:EC-2)
*Elset, elset=_I1, internal
    1,    2,    3,    4,    5,    6,    7,    8,    9,   10,   11,   12,   13,   14,   15,   16
   17,   18,   19,   20,   21,   22,   23,   24,   25,   26,   27,   28,   29,   30,   31,   32
   33,   34,   35,   36,   37,   38,   39,   40,   41,   42,   43,   44,   45,   46,   47,   48
   49,   50,   51,   52,   53,   54,   55,   56,   57,   58,   59,   60,   61,   62,   63,   64
   65,   66,   67,   68,   69,   70,   71,   72,   73,   74,   75,   76,   77,   78,   79,   80
   81,   82,   83,   84,   85,   86,   87,   88,   89,   90,   91,   92,   93,   94,   95,   96
   97,   98,   99,  100,  101,  102,  103,  104,  105,  106,  107,  108,  109,  110,  111,  112
  113,  114,  115,  116,  117,  118,  119,  120,  121,  122,  123,  124,  125,  126,  127,  128
  129,  130,  131,  132,  133,  134,  135,  136,  137,  138,  139,  140,  141,  142,  143,  144
  145,  146,  147,  148,  149,  150,  151,  152,  153,  154,  155,  156,  157,  158,  159,  160
  161,  162,  163,  164,  165,  166,  167,  168,  169,  170,  171,  172,  173,  174,  175,  176
  177,  178,  179,  180,  181,  182,  183,  184,  185,  186,  187,  188,  189,  190,  191,  192
  193,  194,  195,  196,  197,  198,  199,  200,  201,  202,  203,  204,  205,  206,  207,  208
  209,  210,  211,  212,  213,  214,  215,  216,  217,  218,  219,  220,  221,  222,  223,  224
  225,  226,  227,  228,  229,  230,  231,  232,  233,  234,  235,  236,  237,  238,  239,  240
  241,  242,  243,  244,  245,  246,  247,  248,  249,  250,  251,  252,  253,  254,  255,  256
  257,  258,  259,  260,  261,  262,  263,  264,  265,  266,  267,  268,  269,  270,  271,  272
  273,  274,  275,  276,  277,  278,  279,  280,  281,  282,  283,  284,  285,  286,  287,  288
  289,  290,  291,  292,  293,  294,  295,  296,  297,  298,  299,  300,  301,  302,  303,  304
  305,  306,  307,  308,  309,  310,  311,  312,  313,  314,  315,  316,  317,  318,  319,  320
** ... 99 like lines cut
** Section: Projectile
*Solid Section, elset=_I1, controls=EC-2, material=M50_ToolSteel
,
** Region: (Projectile:Set-4), (Controls:Default)
*Elset, elset=_I2, internal
  949,  950,  951,  952,  953,  954,  955,  956,  957,  958,  959,  960,  961,  962,  963,  964
  965,  966,  967,  968,  969,  970,  971,  972,  973,  974,  975,  976,  977,  978,  979,  980
  981,  982,  983,  984,  985,  986,  987,  988,  989,  990,  991,  992,  993,  994,  995,  996
  997,  998,  999, 1000, 1001, 1002, 1003, 1004, 1005, 1006, 1007, 1008, 1009, 1010, 1011, 1012
 1013, 1014, 1015, 1016, 1017, 1018, 1019, 1020, 1021, 1022, 1023, 1024, 1025, 1026, 1027, 1028
 1029, 1030, 1031, 1032, 1033, 1034, 1035, 1036, 1037, 1038, 1039, 1040, 1041, 1042, 1043, 1044
 1045, 1046, 1047, 1048, 1049, 1050, 1051, 1052, 1053, 1054, 1055, 1056, 1057, 1058, 1059, 1060
 1061, 1062, 1063, 1064, 1065, 1066, 1067, 1068, 1069, 1070, 1071, 1072, 1073, 1074, 1075, 1076
 1077, 1078, 1079, 1080, 1081, 1082, 1083, 1084, 1085, 1086, 2035, 2036, 2037, 2038, 2039, 2040
 2041, 2042, 2043, 2044, 2045, 2046, 2047, 2048, 2049, 2050, 2051, 2052, 2053, 2054, 2055, 2056
 2057, 2058, 2059, 2060, 2061, 2062, 2063, 2064, 2065, 2066, 2067, 2068, 2069, 2070, 2071, 2072
 2073, 2074, 2075, 2076, 2077, 2078, 2079, 2080, 2081, 2082, 2083, 2084, 2085, 2086, 2087, 2088
 2089, 2090, 2091, 2092, 2093, 2094, 2095, 2096, 2097, 2098, 2099, 2100, 2101, 2102, 2103, 2104
 2105, 2106, 2107, 2108, 2109, 2110, 2111, 2112, 2113, 2114, 2115, 2116, 2117, 2118, 2119, 2120
 2121, 2122, 2123, 2124, 2125, 2126, 2127, 2128, 2129, 2130, 2131, 2132, 2133, 2134, 2135, 2136
 2137, 2138, 2139, 2140, 2141, 2142, 2143, 2144, 2145, 2146, 2147, 2148, 2149, 2150, 2151, 2152
 2153, 2154, 2155, 2156, 2157, 2158, 2159, 2160, 2161, 2162, 2163, 2164, 2165, 2166, 2167, 2168
 2169, 2170, 2171, 2172
** Section: Projectile
*Solid Section, elset=_I2, material=M50_ToolSteel
,
*End Part
**
*Part, name=Fibers0
*Node
      1,     -0.101175,      0.000000,      0.000425
      2,     -0.101175,      0.002674,      0.000425
      3,     -0.101175,      0.005347,      0.000425
      4,     -0.099475,      0.000000,      0.000425
      5,     -0.099475,      0.002674,      0.000425
      6,     -0.099475,      0.005347,      0.000425
      7,     -0.099475,      0.008021,      0.000425
      8,     -0.099475,      0.010695,      0.000425
      9,     -0.099475,      0.013368,      0.000425
      10,     -0.099475,      0.016042,      0.000425
      11,     -0.097775,      0.000000,      0.000425
      12,     -0.097775,      0.002431,      0.000425
      13,     -0.097775,      0.004861,      0.000425
      14,     -0.097775,      0.007292,      0.000425
      15,     -0.097775,      0.009722,      0.000425
      16,     -0.097775,      0.012153,      0.000425
      17,     -0.097775,      0.014584,      0.000425
      18,     -0.097775,      0.017014,      0.000425
      19,     -0.097775,      0.019445,      0.000425
      20,     -0.097775,      0.021876,      0.000425
** ... 3788 like lines cut
*Element, type=T3D2
1, 1, 2
2, 2, 3
3, 4, 5
4, 5, 6
5, 6, 7
6, 7, 8
7, 8, 9
8, 9, 10
9, 11, 12
10, 12, 13
11, 13, 14
12, 14, 15
13, 15, 16
14, 16, 17
15, 17, 18
16, 18, 19
17, 19, 20
18, 20, 21
19, 21, 22
20, 23, 24
** ... 3668 like lines cut
*Nset, nset=Fib0, internal, generate
1, 3808, 1
*Elset, elset=Fib0, internal, generate
1, 3689, 1
**Section: TrussSection
*Solid Section, elset=Fib0, material=DyneemaFibers
2.269801E-06,
*End Part
**
*Part, name=Fibers90
*Node
      1,     -0.096253,      0.000425,      0.002125
      2,     -0.093785,      0.000425,      0.002125
      3,     -0.091317,      0.000425,      0.002125
      4,     -0.088849,      0.000425,      0.002125
      5,     -0.086381,      0.000425,      0.002125
      6,     -0.083913,      0.000425,      0.002125
      7,     -0.081445,      0.000425,      0.002125
      8,     -0.078977,      0.000425,      0.002125
      9,     -0.076509,      0.000425,      0.002125
      10,     -0.074040,      0.000425,      0.002125
      11,     -0.071572,      0.000425,      0.002125
      12,     -0.069104,      0.000425,      0.002125
      13,     -0.066636,      0.000425,      0.002125
      14,     -0.064168,      0.000425,      0.002125
      15,     -0.061700,      0.000425,      0.002125
      16,     -0.059232,      0.000425,      0.002125
      17,     -0.056764,      0.000425,      0.002125
      18,     -0.054296,      0.000425,      0.002125
      19,     -0.051828,      0.000425,      0.002125
      20,     -0.049360,      0.000425,      0.002125
** ... 3806 like lines cut
*Element, type=T3D2
1, 1, 2
2, 2, 3
3, 3, 4
4, 4, 5
5, 5, 6
6, 6, 7
7, 7, 8
8, 8, 9
9, 9, 10
10, 10, 11
11, 11, 12
12, 12, 13
13, 13, 14
14, 14, 15
15, 15, 16
16, 16, 17
17, 17, 18
18, 18, 19
19, 19, 20
20, 20, 21
** ... 3686 like lines cut
*Nset, nset=Fib90, internal, generate
1, 3826, 1
*Elset, elset=Fib90, internal, generate
1, 3707, 1
**Section: TrussSection
*Solid Section, elset=Fib90, material=DyneemaFibers
2.269801E-06,
*End Part
**  
*Part, name=TargetPlate
*Node
      1, -0.0888999999,           0.,           0.
      2,           0., 0.0888999999,           0.
      3,           0., 0.0250000004,           0.
      4, -0.0250000004,           0.,           0.
      5, -0.0723788291, 0.0516189449, 0.00634999992
      6,           0., 0.0888999999, 0.00634999992
      7,           0., 0.0250000004, 0.00634999992
      8, -0.0250000004,           0., 0.00634999992
      9, -0.0238605402, 0.00746154366, 0.00634999992
     10, -0.0888999999,           0., 0.00634999992
     11,           0.,           0.,           0.
     12,           0.,           0., 0.00634999992
     13, -0.101599999,           0.,           0.
     14,           0.,  0.101599999,           0.
     15, -0.101599999,           0., 0.00634999992
     16,           0.,  0.101599999, 0.00634999992
     17, -0.0887096599, 0.0058143381,           0.
     18, -0.0881394446, 0.0116037782,           0.
     19, -0.0871918127, 0.0173435304,           0.
     20, -0.0858708024, 0.0230090134,           0.
** ... 7813 like lines cut
*Element, type=C3D8R
   1,  200, 1552, 3089, 1342,    1,   17,  376,  104
   2, 1552, 1553, 3090, 3089,   17,   18,  377,  376
   3, 1553, 1554, 3091, 3090,   18,   19,  378,  377
   4, 1554, 1555, 3092, 3091,   19,   20,  379,  378
   5, 1555, 1556, 3093, 3092,   20,   21,  380,  379
   6, 1556, 1557, 3094, 3093,   21,   22,  381,  380
   7, 1557, 1558, 3095, 3094,   22,   23,  382,  381
   8, 1558, 1559, 3096, 3095,   23,   24,  383,  382
   9, 1559, 1560, 3097, 3096,   24,   25,  384,  383
  10, 1560, 1561, 3098, 3097,   25,   26,  385,  384
  11, 1561, 1562, 3099, 3098,   26,   27,  386,  385
  12, 1562, 1563, 3100, 3099,   27,   28,  387,  386
  13, 1563, 1564, 3101, 3100,   28,   29,  388,  387
  14, 1564, 1565, 3102, 3101,   29,   30,  389,  388
  15, 1565, 1566, 3103, 3102,   30,   31,  390,  389
  16, 1566, 1567, 3104, 3103,   31,   32,  391,  390
  17, 1567, 1568, 3105, 3104,   32,   33,  392,  391
  18, 1568, 1569, 3106, 3105,   33,   34,  393,  392
  19, 1569, 1570, 3107, 3106,   34,   35,  394,  393
  20, 1570, 1571, 3108, 3107,   35,   36,  395,  394
** ... 6316 like lines cut
*Nset, nset=_PickedSet103, internal, generate
    1,  7833,     1
*Elset, elset=_PickedSet103, internal, generate
    1,  6336,     1
*Nset, nset=XSymm
    2,    3,    6,    7,   11,   12,   14,   16,   40,   41,   42,   43,   44,   45,   46,   47
   48,   49,   50,   51,   52,   53,   54,   55,   56,   57,   58,   59,   60,  127,  128,  129
  130,  131,  132,  133,  134,  135,  136,  137,  138,  139,  140,  141,  142,  143,  144,  145
  146,  147,  201,  202,  203,  204,  205,  206,  207,  208,  209,  210,  235,  236,  237,  238
  239,  240,  241,  242,  243,  244,  245,  246,  247,  248,  249,  250,  251,  252,  253,  254
  255,  256,  257,  258,  259,  260,  261,  262,  263,  264,  265,  266,  267,  268,  269,  270
  271,  272,  273,  274,  275,  276,  277,  278,  279,  280,  281,  282,  283,  284,  285,  286
  287,  337,  338,  364,  365,  366,  367,  368,  369,  370, 1447, 1448, 1449, 1450, 1451, 1452
 1453, 1454, 1455, 1456, 1457, 1458, 1459, 1460, 1461, 1462, 1463, 1464, 1465, 1466, 1467, 1468
 1469, 1470, 1471, 1472, 1473, 1474, 1475, 1476, 1477, 1478, 1479, 1480, 1481, 1482, 1483, 1484
 1485, 1486, 1487, 1488, 1489, 1490, 1491, 1492, 1493, 1494, 1495, 1496, 1497, 1498, 1499, 1500
 1501, 1502, 1503, 1504, 1505, 1506, 1507, 1508, 1509, 1510, 1511, 1512, 1513, 1514, 1515, 1516
 1517, 1518, 1519, 1520, 1521, 1522, 1523, 1524, 1525, 1526, 1527, 1528, 1529, 1530, 1531, 1532
 1533, 1534, 1535, 1536, 1537, 1538, 1539, 1540, 1541, 1542, 1543, 1544, 1545, 1546, 1547, 1548
 1549, 1550, 1551, 2322, 2323, 2324, 2325, 2326, 2327, 2328, 2329, 2330, 2331, 2332, 2333, 2334
 2335, 2336, 2337, 2338, 2339, 2340, 2341, 2342, 2343, 2344, 2345, 2346, 2347, 2348, 2349, 2350
 2351, 2352, 2353, 2354, 2355, 2356, 2357, 2358, 2359, 2360, 2361, 2362, 2363, 2364, 2365, 2366
 2367, 2368, 2369, 2370, 2371, 2372, 2373, 2374, 2375, 2376, 2377, 2378, 2379, 2380, 2381, 2382
 2383, 2384, 2385, 2386, 2387, 2388, 2389, 2390, 2391, 2392, 2393, 2394, 2395, 2396, 2397, 2398
 2399, 2400, 2401, 2402, 2403, 2404, 2405, 2406, 2407, 2408, 2409, 2410, 2411, 2412, 2413, 2414
 2415, 2416, 2417, 2418, 2419, 2420, 2421, 2422, 2423, 2424, 2425, 2426, 2427, 2428, 2429, 2430
 2431, 2432, 2433, 2434, 2435, 2436, 2437, 2438, 2439, 2440, 2441, 2954, 2955, 2956, 2957, 2958
 2959, 2960, 2961, 2962, 2963
*Elset, elset=XSymm
   24,   48,   72,   96,  120,  144,  168,  192,  216,  240,  264,  288,  312,  336,  360,  384
  408,  432,  456,  480,  504,  528,  552,  576,  600,  624,  648,  672,  696,  720,  744,  768
  792,  816,  840,  864,  888,  912,  936,  960,  984, 1008, 1032, 1056, 1080, 1104, 1128, 1152
 1176, 1200, 1224, 1248, 1272, 1296, 1320, 1344, 1368, 1392, 1416, 1440, 1464, 1488, 1512, 1536
 1560, 1584, 1608, 1632, 1656, 1680, 1704, 1728, 1752, 1776, 1800, 1824, 1848, 1872, 1896, 1920
 1944, 1968, 1992, 2016, 2040, 2064, 2088, 2112, 2136, 2160, 2184, 2208, 2232, 2256, 2280, 2304
 2328, 2352, 2376, 2400, 2424, 2448, 2472, 2496, 2520, 2544, 2568, 2592, 2616, 2640, 2664, 2688
 2712, 2736, 2760, 2784, 2808, 2832, 2856, 2880, 2904, 2928, 2952, 2976, 3000, 3024, 3048, 3072
 3096, 3120, 3144, 3168, 3648, 3660, 3672, 3684, 3696, 3708, 3720, 3732, 3744, 3756, 3768, 3780
 3792, 3804, 3816, 3828, 3840, 3852, 3864, 3876, 3888, 3900, 3912, 3924, 3936, 3948, 3960, 3972
 3984, 3996, 4008, 4020, 4032, 4044, 4056, 4068, 4080, 4092, 4104, 4105, 4106, 4107, 4108, 4109
 4110, 4111, 4112, 4113, 4114, 4115, 4116, 4249, 4250, 4251, 4252, 4253, 4254, 4255, 4256, 4257
 4258, 4259, 4260, 4393, 4394, 4395, 4396, 4397, 4398, 4399, 4400, 4401, 4402, 4403, 4404, 4548
 4560, 4572, 4584, 4596, 4608, 4620, 4632, 4644, 4656, 4668, 4680, 4692, 4704, 4716, 4728, 4740
 4752, 4764, 4776, 4788, 4800, 4812, 4824, 4836, 4848, 4860, 4872, 4884, 4896, 4908, 4920, 4932
 4944, 4956, 4968, 4980, 4992, 5004, 5473, 5474, 5475, 5476, 5477, 5478, 5479, 5480, 5481, 5482
 5483, 5484, 5485, 5486, 5487, 5488, 5489, 5490, 5491, 5492, 5493, 5494, 5495, 5496, 5497, 5498
 5499, 5500, 5501, 5502, 5503, 5504, 5505, 5506, 5507, 5508, 5905, 5929, 5953, 5977, 6001, 6025
 6049, 6073, 6097, 6121, 6145, 6169, 6193, 6217, 6241, 6265, 6289, 6313
*Nset, nset=YSymm
    1,    4,    8,   10,   11,   12,   13,   15,   84,   85,   86,   87,   88,   89,   90,   91
   92,   93,   94,   95,   96,   97,   98,   99,  100,  101,  102,  103,  104,  170,  171,  172
  173,  174,  175,  176,  177,  178,  179,  180,  181,  182,  183,  184,  185,  186,  187,  188
  189,  190,  191,  192,  193,  194,  195,  196,  197,  198,  199,  200,  211,  212,  213,  214
  215,  216,  217,  218,  219,  220,  221,  222,  223,  224,  225,  226,  227,  228,  229,  230
  231,  232,  233,  234,  259,  260,  261,  262,  263,  288,  289,  290,  291,  292,  293,  294
  295,  296,  297,  298,  299,  300,  301,  302,  303,  304,  305,  306,  307,  308,  309,  310
  311,  312,  313,  339,  340,  371,  372,  373,  374,  375, 1342, 1343, 1344, 1345, 1346, 1347
 1348, 1349, 1350, 1351, 1352, 1353, 1354, 1355, 1356, 1357, 1358, 1359, 1360, 1361, 1362, 1363
 1364, 1365, 1366, 1367, 1368, 1369, 1370, 1371, 1372, 1373, 1374, 1375, 1376, 1377, 1378, 1379
 1380, 1381, 1382, 1383, 1384, 1385, 1386, 1387, 1388, 1389, 1390, 1391, 1392, 1393, 1394, 1395
 1396, 1397, 1398, 1399, 1400, 1401, 1402, 1403, 1404, 1405, 1406, 1407, 1408, 1409, 1410, 1411
 1412, 1413, 1414, 1415, 1416, 1417, 1418, 1419, 1420, 1421, 1422, 1423, 1424, 1425, 1426, 1427
 1428, 1429, 1430, 1431, 1432, 1433, 1434, 1435, 1436, 1437, 1438, 1439, 1440, 1441, 1442, 1443
 1444, 1445, 1446, 2202, 2203, 2204, 2205, 2206, 2207, 2208, 2209, 2210, 2211, 2212, 2213, 2214
 2215, 2216, 2217, 2218, 2219, 2220, 2221, 2222, 2223, 2224, 2225, 2226, 2227, 2228, 2229, 2230
 2231, 2232, 2233, 2234, 2235, 2236, 2237, 2238, 2239, 2240, 2241, 2242, 2243, 2244, 2245, 2246
 2247, 2248, 2249, 2250, 2251, 2252, 2253, 2254, 2255, 2256, 2257, 2258, 2259, 2260, 2261, 2262
 2263, 2264, 2265, 2266, 2267, 2268, 2269, 2270, 2271, 2272, 2273, 2274, 2275, 2276, 2277, 2278
 2279, 2280, 2281, 2282, 2283, 2284, 2285, 2286, 2287, 2288, 2289, 2290, 2291, 2292, 2293, 2294
 2295, 2296, 2297, 2298, 2299, 2300, 2301, 2302, 2303, 2304, 2305, 2306, 2307, 2308, 2309, 2310
 2311, 2312, 2313, 2314, 2315, 2316, 2317, 2318, 2319, 2320, 2321, 2964, 2965, 2966, 2967, 2968
 2969, 2970, 2971, 2972, 2973
*Elset, elset=YSymm
    1,   25,   49,   73,   97,  121,  145,  169,  193,  217,  241,  265,  289,  313,  337,  361
  385,  409,  433,  457,  481,  505,  529,  553,  577,  601,  625,  649,  673,  697,  721,  745
  769,  793,  817,  841,  865,  889,  913,  937,  961,  985, 1009, 1033, 1057, 1081, 1105, 1129
 1153, 1177, 1201, 1225, 1249, 1273, 1297, 1321, 1345, 1369, 1393, 1417, 1441, 1465, 1489, 1513
 1537, 1561, 1585, 1609, 1633, 1657, 1681, 1705, 1729, 1753, 1777, 1801, 1825, 1849, 1873, 1897
 1921, 1945, 1969, 1993, 2017, 2041, 2065, 2089, 2113, 2137, 2161, 2185, 2209, 2233, 2257, 2281
 2305, 2329, 2353, 2377, 2401, 2425, 2449, 2473, 2497, 2521, 2545, 2569, 2593, 2617, 2641, 2665
 2689, 2713, 2737, 2761, 2785, 2809, 2833, 2857, 2881, 2905, 2929, 2953, 2977, 3001, 3025, 3049
 3073, 3097, 3121, 3145, 3169, 3170, 3171, 3172, 3173, 3174, 3175, 3176, 3177, 3178, 3179, 3180
 3181, 3325, 3326, 3327, 3328, 3329, 3330, 3331, 3332, 3333, 3334, 3335, 3336, 3337, 3481, 3482
 3483, 3484, 3485, 3486, 3487, 3488, 3489, 3490, 3491, 3492, 3493, 4116, 4128, 4140, 4152, 4164
 4176, 4188, 4200, 4212, 4224, 4236, 4248, 4260, 4272, 4284, 4296, 4308, 4320, 4332, 4344, 4356
 4368, 4380, 4392, 4404, 4416, 4428, 4440, 4452, 4464, 4476, 4488, 4500, 4512, 4524, 4536, 5005
 5006, 5007, 5041, 5042, 5043, 5077, 5078, 5079, 5113, 5114, 5115, 5149, 5150, 5151, 5185, 5186
 5187, 5221, 5222, 5223, 5257, 5258, 5259, 5293, 5294, 5295, 5329, 5330, 5331, 5365, 5366, 5367
 5401, 5402, 5403, 5437, 5438, 5439, 5484, 5496, 5508, 5520, 5532, 5544, 5556, 5568, 5580, 5592
 5604, 5616, 5628, 5640, 5652, 5664, 5676, 5688, 5700, 5712, 5724, 5736, 5748, 5760, 5772, 5784
 5796, 5808, 5820, 5832, 5844, 5856, 5868, 5880, 5892, 5904, 5928, 5952, 5976, 6000, 6024, 6048
 6072, 6096, 6120, 6144, 6168, 6192, 6216, 6240, 6264, 6288, 6312, 6336
*Elset, elset=_FrontFace_S1, internal
 2641, 2642, 2643, 2644, 2645, 2646, 2647, 2648, 2649, 2650, 2651, 2652, 2653, 2654, 2655, 2656
 2657, 2658, 2659, 2660, 2661, 2662, 2663, 2664, 2665, 2666, 2667, 2668, 2669, 2670, 2671, 2672
 2673, 2674, 2675, 2676, 2677, 2678, 2679, 2680, 2681, 2682, 2683, 2684, 2685, 2686, 2687, 2688
 2689, 2690, 2691, 2692, 2693, 2694, 2695, 2696, 2697, 2698, 2699, 2700, 2701, 2702, 2703, 2704
 2705, 2706, 2707, 2708, 2709, 2710, 2711, 2712, 2713, 2714, 2715, 2716, 2717, 2718, 2719, 2720
 2721, 2722, 2723, 2724, 2725, 2726, 2727, 2728, 2729, 2730, 2731, 2732, 2733, 2734, 2735, 2736
 2737, 2738, 2739, 2740, 2741, 2742, 2743, 2744, 2745, 2746, 2747, 2748, 2749, 2750, 2751, 2752
 2753, 2754, 2755, 2756, 2757, 2758, 2759, 2760, 2761, 2762, 2763, 2764, 2765, 2766, 2767, 2768
 2769, 2770, 2771, 2772, 2773, 2774, 2775, 2776, 2777, 2778, 2779, 2780, 2781, 2782, 2783, 2784
 2785, 2786, 2787, 2788, 2789, 2790, 2791, 2792, 2793, 2794, 2795, 2796, 2797, 2798, 2799, 2800
 2801, 2802, 2803, 2804, 2805, 2806, 2807, 2808, 2809, 2810, 2811, 2812, 2813, 2814, 2815, 2816
 2817, 2818, 2819, 2820, 2821, 2822, 2823, 2824, 2825, 2826, 2827, 2828, 2829, 2830, 2831, 2832
 2833, 2834, 2835, 2836, 2837, 2838, 2839, 2840, 2841, 2842, 2843, 2844, 2845, 2846, 2847, 2848
 2849, 2850, 2851, 2852, 2853, 2854, 2855, 2856, 2857, 2858, 2859, 2860, 2861, 2862, 2863, 2864
 2865, 2866, 2867, 2868, 2869, 2870, 2871, 2872, 2873, 2874, 2875, 2876, 2877, 2878, 2879, 2880
 2881, 2882, 2883, 2884, 2885, 2886, 2887, 2888, 2889, 2890, 2891, 2892, 2893, 2894, 2895, 2896
 2897, 2898, 2899, 2900, 2901, 2902, 2903, 2904, 2905, 2906, 2907, 2908, 2909, 2910, 2911, 2912
 2913, 2914, 2915, 2916, 2917, 2918, 2919, 2920, 2921, 2922, 2923, 2924, 2925, 2926, 2927, 2928
 2929, 2930, 2931, 2932, 2933, 2934, 2935, 2936, 2937, 2938, 2939, 2940, 2941, 2942, 2943, 2944
 2945, 2946, 2947, 2948, 2949, 2950, 2951, 2952, 2953, 2954, 2955, 2956, 2957, 2958, 2959, 2960
** ... 18 like lines cut
*Elset, elset=_FrontFace_S3, internal
 4537, 4538, 4539, 4540, 4541, 4542, 4543, 4544, 4545, 4546, 4547, 4548, 4573, 4574, 4575, 4576
 4577, 4578, 4579, 4580, 4581, 4582, 4583, 4584, 4609, 4610, 4611, 4612, 4613, 4614, 4615, 4616
 4617, 4618, 4619, 4620, 4645, 4646, 4647, 4648, 4649, 4650, 4651, 4652, 4653, 4654, 4655, 4656
 4681, 4682, 4683, 4684, 4685, 4686, 4687, 4688, 4689, 4690, 4691, 4692, 4717, 4718, 4719, 4720
 4721, 4722, 4723, 4724, 4725, 4726, 4727, 4728, 4753, 4754, 4755, 4756, 4757, 4758, 4759, 4760
 4761, 4762, 4763, 4764, 4789, 4790, 4791, 4792, 4793, 4794, 4795, 4796, 4797, 4798, 4799, 4800
 4825, 4826, 4827, 4828, 4829, 4830, 4831, 4832, 4833, 4834, 4835, 4836, 4861, 4862, 4863, 4864
 4865, 4866, 4867, 4868, 4869, 4870, 4871, 4872, 4897, 4898, 4899, 4900, 4901, 4902, 4903, 4904
 4905, 4906, 4907, 4908, 4933, 4934, 4935, 4936, 4937, 4938, 4939, 4940, 4941, 4942, 4943, 4944
 4969, 4970, 4971, 4972, 4973, 4974, 4975, 4976, 4977, 4978, 4979, 4980, 5473, 5474, 5475, 5476
 5477, 5478, 5479, 5480, 5481, 5482, 5483, 5484, 5509, 5510, 5511, 5512, 5513, 5514, 5515, 5516
 5517, 5518, 5519, 5520, 5545, 5546, 5547, 5548, 5549, 5550, 5551, 5552, 5553, 5554, 5555, 5556
 5581, 5582, 5583, 5584, 5585, 5586, 5587, 5588, 5589, 5590, 5591, 5592, 5617, 5618, 5619, 5620
 5621, 5622, 5623, 5624, 5625, 5626, 5627, 5628, 5653, 5654, 5655, 5656, 5657, 5658, 5659, 5660
 5661, 5662, 5663, 5664, 5689, 5690, 5691, 5692, 5693, 5694, 5695, 5696, 5697, 5698, 5699, 5700
 5725, 5726, 5727, 5728, 5729, 5730, 5731, 5732, 5733, 5734, 5735, 5736, 5761, 5762, 5763, 5764
 5765, 5766, 5767, 5768, 5769, 5770, 5771, 5772, 5797, 5798, 5799, 5800, 5801, 5802, 5803, 5804
 5805, 5806, 5807, 5808, 5833, 5834, 5835, 5836, 5837, 5838, 5839, 5840, 5841, 5842, 5843, 5844
 5869, 5870, 5871, 5872, 5873, 5874, 5875, 5876, 5877, 5878, 5879, 5880
*Elset, elset=_FrontFace_S4, internal, generate
 5007,  5472,     3
*Surface, type=ELEMENT, name=FrontFace
_FrontFace_S1, S1
_FrontFace_S3, S3
_FrontFace_S4, S4
*Elset, elset=_BackFace_S2, internal
    1,    2,    3,    4,    5,    6,    7,    8,    9,   10,   11,   12,   13,   14,   15,   16
   17,   18,   19,   20,   21,   22,   23,   24,   25,   26,   27,   28,   29,   30,   31,   32
   33,   34,   35,   36,   37,   38,   39,   40,   41,   42,   43,   44,   45,   46,   47,   48
   49,   50,   51,   52,   53,   54,   55,   56,   57,   58,   59,   60,   61,   62,   63,   64
   65,   66,   67,   68,   69,   70,   71,   72,   73,   74,   75,   76,   77,   78,   79,   80
   81,   82,   83,   84,   85,   86,   87,   88,   89,   90,   91,   92,   93,   94,   95,   96
   97,   98,   99,  100,  101,  102,  103,  104,  105,  106,  107,  108,  109,  110,  111,  112
  113,  114,  115,  116,  117,  118,  119,  120,  121,  122,  123,  124,  125,  126,  127,  128
  129,  130,  131,  132,  133,  134,  135,  136,  137,  138,  139,  140,  141,  142,  143,  144
  145,  146,  147,  148,  149,  150,  151,  152,  153,  154,  155,  156,  157,  158,  159,  160
  161,  162,  163,  164,  165,  166,  167,  168,  169,  170,  171,  172,  173,  174,  175,  176
  177,  178,  179,  180,  181,  182,  183,  184,  185,  186,  187,  188,  189,  190,  191,  192
  193,  194,  195,  196,  197,  198,  199,  200,  201,  202,  203,  204,  205,  206,  207,  208
  209,  210,  211,  212,  213,  214,  215,  216,  217,  218,  219,  220,  221,  222,  223,  224
  225,  226,  227,  228,  229,  230,  231,  232,  233,  234,  235,  236,  237,  238,  239,  240
  241,  242,  243,  244,  245,  246,  247,  248,  249,  250,  251,  252,  253,  254,  255,  256
  257,  258,  259,  260,  261,  262,  263,  264,  265,  266,  267,  268,  269,  270,  271,  272
  273,  274,  275,  276,  277,  278,  279,  280,  281,  282,  283,  284,  285,  286,  287,  288
  289,  290,  291,  292,  293,  294,  295,  296,  297,  298,  299,  300,  301,  302,  303,  304
  305,  306,  307,  308,  309,  310,  311,  312,  313,  314,  315,  316,  317,  318,  319,  320
** ... 46 like lines cut
*Surface, type=ELEMENT, name=BackFace
_BackFace_S2, S2
*Orientation, name=Ori-1
1., 0., 0., 0., 1., 0.
1, 0.
** Section: Matrix
*Solid Section, elset=_PickedSet103, orientation=Ori-1, controls=EC-1, material=Matrix_Utomo
,
*End Part
**  
**
** ASSEMBLY
**
*Assembly, name=Assembly
**  
*Instance, name=TargetPlate-1, part=TargetPlate
*End Instance
**
*Instance, name=Fibers0, part=Fibers0
0.000000E+00, 0.000000E+00, 0.000000E+00
*End Instance
**
*Instance, name=Fibers90, part=Fibers90
0.000000E+00, 0.000000E+00, 0.000000E+00
*End Instance
*Nset, nset=ALLFIBERS, instance=FIBERS0, generate
1, 3808, 1
*Nset, nset=ALLFIBERS, instance=FIBERS90, generate
1, 3826, 1
*Elset, elset=ALLFIBERS, instance=FIBERS0, generate
1, 3689, 1
*Elset, elset=ALLFIBERS, instance=FIBERS90, generate
1, 3707, 1
**  
*Instance, name=SteelProjectile-1, part=SteelProjectile
          0.,           0.,     0.011213
          0.,           0.,     0.011213, -0.577350279552042, -0.577350279552042, 0.588563279552042, 119.999999109416
*End Instance
**  
*Nset, nset=AllOutside, instance=TargetPlate-1
    1,    2,    3,    4,    5,    6,    7,    8,    9,   10,   11,   12,   13,   14,   15,   16
   17,   18,   19,   20,   21,   22,   23,   24,   25,   26,   27,   28,   29,   30,   31,   32
   33,   34,   35,   36,   37,   38,   39,   40,   41,   42,   43,   44,   45,   46,   47,   48
   49,   50,   51,   52,   53,   54,   55,   56,   57,   58,   59,   60,   61,   62,   63,   64
   65,   66,   67,   68,   69,   70,   71,   72,   73,   74,   75,   76,   77,   78,   79,   80
   81,   82,   83,   84,   85,   86,   87,   88,   89,   90,   91,   92,   93,   94,   95,   96
   97,   98,   99,  100,  101,  102,  103,  104,  105,  106,  107,  108,  109,  110,  111,  112
  113,  114,  115,  116,  117,  118,  119,  120,  121,  122,  123,  124,  125,  126,  127,  128
  129,  130,  131,  132,  133,  134,  135,  136,  137,  138,  139,  140,  141,  142,  143,  144
  145,  146,  147,  148,  149,  150,  151,  152,  153,  154,  155,  156,  157,  158,  159,  160
  161,  162,  163,  164,  165,  166,  167,  168,  169,  170,  171,  172,  173,  174,  175,  176
  177,  178,  179,  180,  181,  182,  183,  184,  185,  186,  187,  188,  189,  190,  191,  192
  193,  194,  195,  196,  197,  198,  199,  200,  201,  202,  203,  204,  205,  206,  207,  208
  209,  210,  211,  212,  213,  214,  215,  216,  217,  218,  219,  220,  221,  222,  223,  224
  225,  226,  227,  228,  229,  230,  231,  232,  233,  234,  235,  236,  237,  238,  239,  240
  241,  242,  243,  244,  245,  246,  247,  248,  249,  250,  251,  252,  253,  254,  255,  256
  257,  258,  259,  260,  261,  262,  263,  264,  265,  266,  267,  268,  269,  270,  271,  272
  273,  274,  275,  276,  277,  278,  279,  280,  281,  282,  283,  284,  285,  286,  287,  288
  289,  290,  291,  292,  293,  294,  295,  296,  297,  298,  299,  300,  301,  302,  303,  304
  305,  306,  307,  308,  309,  310,  311,  312,  313,  314,  315,  316,  317,  318,  319,  320
** ... 159 like lines cut
*Elset, elset=AllOutside, instance=TargetPlate-1
    1,    2,    3,    4,    5,    6,    7,    8,    9,   10,   11,   12,   13,   14,   15,   16
   17,   18,   19,   20,   21,   22,   23,   24,   25,   26,   27,   28,   29,   30,   31,   32
   33,   34,   35,   36,   37,   38,   39,   40,   41,   42,   43,   44,   45,   46,   47,   48
   49,   50,   51,   52,   53,   54,   55,   56,   57,   58,   59,   60,   61,   62,   63,   64
   65,   66,   67,   68,   69,   70,   71,   72,   73,   74,   75,   76,   77,   78,   79,   80
   81,   82,   83,   84,   85,   86,   87,   88,   89,   90,   91,   92,   93,   94,   95,   96
   97,   98,   99,  100,  101,  102,  103,  104,  105,  106,  107,  108,  109,  110,  111,  112
  113,  114,  115,  116,  117,  118,  119,  120,  121,  122,  123,  124,  125,  126,  127,  128
  129,  130,  131,  132,  133,  134,  135,  136,  137,  138,  139,  140,  141,  142,  143,  144
  145,  146,  147,  148,  149,  150,  151,  152,  153,  154,  155,  156,  157,  158,  159,  160
  161,  162,  163,  164,  165,  166,  167,  168,  169,  170,  171,  172,  173,  174,  175,  176
  177,  178,  179,  180,  181,  182,  183,  184,  185,  186,  187,  188,  189,  190,  191,  192
  193,  194,  195,  196,  197,  198,  199,  200,  201,  202,  203,  204,  205,  206,  207,  208
  209,  210,  211,  212,  213,  214,  215,  216,  217,  218,  219,  220,  221,  222,  223,  224
  225,  226,  227,  228,  229,  230,  231,  232,  233,  234,  235,  236,  237,  238,  239,  240
  241,  242,  243,  244,  245,  246,  247,  248,  249,  250,  251,  252,  253,  254,  255,  256
  257,  258,  259,  260,  261,  262,  263,  264,  265,  266,  267,  268,  269,  270,  271,  272
  273,  274,  275,  276,  277,  278,  279,  280,  281,  282,  283,  284,  285,  286,  287,  288
  289,  290,  291,  292,  293,  294,  295,  296,  297,  298,  299,  300,  301,  302,  303,  304
  305,  306,  307,  308,  309,  310,  311,  312,  313,  314,  315,  316,  317,  318,  319,  320
** ... 143 like lines cut
*Nset, nset=Clamp, instance=TargetPlate-1
    1,    2,    5,    6,   10,   13,   14,   15,   16,   17,   18,   19,   20,   21,   22,   23
   24,   25,   26,   27,   28,   29,   30,   31,   32,   33,   34,   35,   36,   37,   38,   39
  105,  106,  107,  108,  109,  110,  111,  112,  113,  114,  115,  116,  117,  118,  119,  120
  121,  122,  123,  124,  125,  126,  312,  313,  314,  315,  316,  317,  318,  319,  320,  321
  322,  323,  324,  325,  326,  327,  328,  329,  330,  331,  332,  333,  334,  335,  336,  337
  338,  339,  340,  341,  342,  343,  344,  345,  346,  347,  348,  349,  350,  351,  352,  353
  354,  355,  356,  357,  358,  359,  360,  361,  362,  363,  364,  365, 2862, 2863, 2864, 2865
 2866, 2867, 2868, 2869, 2870, 2871, 2872, 2873, 2874, 2875, 2876, 2877, 2878, 2879, 2880, 2881
 2882, 2883, 2884, 2885, 2886, 2887, 2888, 2889, 2890, 2891, 2892, 2893, 2894, 2895, 2896, 2897
 2898, 2899, 2900, 2901, 2902, 2903, 2904, 2905, 2906, 2907, 2908, 2909, 2910, 2911, 2912, 2913
 2914, 2915, 2916, 2917, 2918, 2919, 2920, 2921, 2922, 2923, 2924, 2925, 2926, 2927, 2928, 2929
 2930, 2931, 2932, 2933, 2934, 2935, 2936, 2937, 2938, 2939, 2940, 2941, 2942, 2943, 2944, 2945
 2946, 2947, 2948, 2949, 2950, 2951, 2952, 2953
*Elset, elset=Clamp, instance=TargetPlate-1
 5905, 5906, 5907, 5908, 5909, 5910, 5911, 5912, 5913, 5914, 5915, 5916, 5917, 5918, 5919, 5920
 5921, 5922, 5923, 5924, 5925, 5926, 5927, 5928, 5929, 5930, 5931, 5932, 5933, 5934, 5935, 5936
 5937, 5938, 5939, 5940, 5941, 5942, 5943, 5944, 5945, 5946, 5947, 5948, 5949, 5950, 5951, 5952
 5953, 5954, 5955, 5956, 5957, 5958, 5959, 5960, 5961, 5962, 5963, 5964, 5965, 5966, 5967, 5968
 5969, 5970, 5971, 5972, 5973, 5974, 5975, 5976, 6265, 6266, 6267, 6268, 6269, 6270, 6271, 6272
 6273, 6274, 6275, 6276, 6277, 6278, 6279, 6280, 6281, 6282, 6283, 6284, 6285, 6286, 6287, 6288
 6289, 6290, 6291, 6292, 6293, 6294, 6295, 6296, 6297, 6298, 6299, 6300, 6301, 6302, 6303, 6304
 6305, 6306, 6307, 6308, 6309, 6310, 6311, 6312, 6313, 6314, 6315, 6316, 6317, 6318, 6319, 6320
 6321, 6322, 6323, 6324, 6325, 6326, 6327, 6328, 6329, 6330, 6331, 6332, 6333, 6334, 6335, 6336
*Nset, nset=HOST, instance=TargetPlate-1, generate
    1,  7833,     1
*Elset, elset=HOST, instance=TargetPlate-1, generate
    1,  6336,     1
*Nset, nset=Outside, instance=TargetPlate-1
    1,    2,    3,    4,   11,   13,   14,   15,   16,   17,   18,   19,   20,   21,   22,   23
   24,   25,   26,   27,   28,   29,   30,   31,   32,   33,   34,   35,   36,   37,   38,   39
   40,   41,   42,   43,   44,   45,   46,   47,   48,   49,   50,   51,   52,   53,   54,   55
   56,   57,   58,   59,   60,   61,   62,   63,   64,   65,   66,   67,   68,   69,   70,   71
   72,   73,   74,   75,   76,   77,   78,   79,   80,   81,   82,   83,   84,   85,   86,   87
   88,   89,   90,   91,   92,   93,   94,   95,   96,   97,   98,   99,  100,  101,  102,  103
  104,  211,  212,  213,  214,  215,  216,  217,  218,  219,  220,  221,  222,  223,  224,  225
  226,  227,  228,  229,  230,  231,  232,  233,  234,  235,  236,  237,  238,  239,  240,  241
  242,  243,  244,  245,  246,  247,  248,  249,  250,  251,  252,  253,  254,  255,  256,  257
  258,  312,  313,  314,  315,  316,  317,  318,  319,  320,  321,  322,  323,  324,  325,  326
  327,  328,  329,  330,  331,  332,  333,  334,  335,  336,  337,  338,  341,  342,  343,  344
  345,  346,  347,  348,  349,  350,  351,  352,  353,  354,  355,  356,  357,  358,  359,  360
  361,  362,  363,  366,  367,  368,  369,  370,  371,  372,  373,  374,  375,  376,  377,  378
  379,  380,  381,  382,  383,  384,  385,  386,  387,  388,  389,  390,  391,  392,  393,  394
  395,  396,  397,  398,  399,  400,  401,  402,  403,  404,  405,  406,  407,  408,  409,  410
  411,  412,  413,  414,  415,  416,  417,  418,  419,  420,  421,  422,  423,  424,  425,  426
  427,  428,  429,  430,  431,  432,  433,  434,  435,  436,  437,  438,  439,  440,  441,  442
  443,  444,  445,  446,  447,  448,  449,  450,  451,  452,  453,  454,  455,  456,  457,  458
  459,  460,  461,  462,  463,  464,  465,  466,  467,  468,  469,  470,  471,  472,  473,  474
  475,  476,  477,  478,  479,  480,  481,  482,  483,  484,  485,  486,  487,  488,  489,  490
** ... 60 like lines cut
*Elset, elset=Outside, instance=TargetPlate-1
    1,    2,    3,    4,    5,    6,    7,    8,    9,   10,   11,   12,   13,   14,   15,   16
   17,   18,   19,   20,   21,   22,   23,   24,   25,   26,   27,   28,   29,   30,   31,   32
   33,   34,   35,   36,   37,   38,   39,   40,   41,   42,   43,   44,   45,   46,   47,   48
   49,   50,   51,   52,   53,   54,   55,   56,   57,   58,   59,   60,   61,   62,   63,   64
   65,   66,   67,   68,   69,   70,   71,   72,   73,   74,   75,   76,   77,   78,   79,   80
   81,   82,   83,   84,   85,   86,   87,   88,   89,   90,   91,   92,   93,   94,   95,   96
   97,   98,   99,  100,  101,  102,  103,  104,  105,  106,  107,  108,  109,  110,  111,  112
  113,  114,  115,  116,  117,  118,  119,  120,  121,  122,  123,  124,  125,  126,  127,  128
  129,  130,  131,  132,  133,  134,  135,  136,  137,  138,  139,  140,  141,  142,  143,  144
  145,  146,  147,  148,  149,  150,  151,  152,  153,  154,  155,  156,  157,  158,  159,  160
  161,  162,  163,  164,  165,  166,  167,  168,  169,  170,  171,  172,  173,  174,  175,  176
  177,  178,  179,  180,  181,  182,  183,  184,  185,  186,  187,  188,  189,  190,  191,  192
  193,  194,  195,  196,  197,  198,  199,  200,  201,  202,  203,  204,  205,  206,  207,  208
  209,  210,  211,  212,  213,  214,  215,  216,  217,  218,  219,  220,  221,  222,  223,  224
  225,  226,  227,  228,  229,  230,  231,  232,  233,  234,  235,  236,  237,  238,  239,  240
  241,  242,  243,  244,  245,  246,  247,  248,  249,  250,  251,  252,  253,  254,  255,  256
  257,  258,  259,  260,  261,  262,  263,  264,  265,  266,  267,  268,  269,  270,  271,  272
  273,  274,  275,  276,  277,  278,  279,  280,  281,  282,  283,  284,  285,  286,  287,  288
  289,  290,  291,  292,  293,  294,  295,  296,  297,  298,  299,  300,  301,  302,  303,  304
  305,  306,  307,  308,  309,  310,  311,  312,  313,  314,  315,  316,  317,  318,  319,  320
** ... 54 like lines cut
*Nset, nset=XSymm, instance=TargetPlate-1
    2,    3,    6,    7,   11,   12,   14,   16,   40,   41,   42,   43,   44,   45,   46,   47
   48,   49,   50,   51,   52,   53,   54,   55,   56,   57,   58,   59,   60,  127,  128,  129
  130,  131,  132,  133,  134,  135,  136,  137,  138,  139,  140,  141,  142,  143,  144,  145
  146,  147,  201,  202,  203,  204,  205,  206,  207,  208,  209,  210,  235,  236,  237,  238
  239,  240,  241,  242,  243,  244,  245,  246,  247,  248,  249,  250,  251,  252,  253,  254
  255,  256,  257,  258,  259,  260,  261,  262,  263,  264,  265,  266,  267,  268,  269,  270
  271,  272,  273,  274,  275,  276,  277,  278,  279,  280,  281,  282,  283,  284,  285,  286
  287,  337,  338,  364,  365,  366,  367,  368,  369,  370, 1447, 1448, 1449, 1450, 1451, 1452
 1453, 1454, 1455, 1456, 1457, 1458, 1459, 1460, 1461, 1462, 1463, 1464, 1465, 1466, 1467, 1468
 1469, 1470, 1471, 1472, 1473, 1474, 1475, 1476, 1477, 1478, 1479, 1480, 1481, 1482, 1483, 1484
 1485, 1486, 1487, 1488, 1489, 1490, 1491, 1492, 1493, 1494, 1495, 1496, 1497, 1498, 1499, 1500
 1501, 1502, 1503, 1504, 1505, 1506, 1507, 1508, 1509, 1510, 1511, 1512, 1513, 1514, 1515, 1516
 1517, 1518, 1519, 1520, 1521, 1522, 1523, 1524, 1525, 1526, 1527, 1528, 1529, 1530, 1531, 1532
 1533, 1534, 1535, 1536, 1537, 1538, 1539, 1540, 1541, 1542, 1543, 1544, 1545, 1546, 1547, 1548
 1549, 1550, 1551, 2322, 2323, 2324, 2325, 2326, 2327, 2328, 2329, 2330, 2331, 2332, 2333, 2334
 2335, 2336, 2337, 2338, 2339, 2340, 2341, 2342, 2343, 2344, 2345, 2346, 2347, 2348, 2349, 2350
 2351, 2352, 2353, 2354, 2355, 2356, 2357, 2358, 2359, 2360, 2361, 2362, 2363, 2364, 2365, 2366
 2367, 2368, 2369, 2370, 2371, 2372, 2373, 2374, 2375, 2376, 2377, 2378, 2379, 2380, 2381, 2382
 2383, 2384, 2385, 2386, 2387, 2388, 2389, 2390, 2391, 2392, 2393, 2394, 2395, 2396, 2397, 2398
 2399, 2400, 2401, 2402, 2403, 2404, 2405, 2406, 2407, 2408, 2409, 2410, 2411, 2412, 2413, 2414
 2415, 2416, 2417, 2418, 2419, 2420, 2421, 2422, 2423, 2424, 2425, 2426, 2427, 2428, 2429, 2430
 2431, 2432, 2433, 2434, 2435, 2436, 2437, 2438, 2439, 2440, 2441, 2954, 2955, 2956, 2957, 2958
 2959, 2960, 2961, 2962, 2963
*Nset, nset=XSymm, instance=SteelProjectile-1
   2,   3,   5,   6,   7,   8,   9,  10,  11,  12,  13,  14,  15,  16,  17,  18
  19,  20,  21,  22,  23,  92,  93,  94,  95,  96,  97,  98,  99, 100, 101, 102
 103, 104, 105, 106, 107, 108, 109, 110, 111, 112, 113, 114, 115, 116, 117, 118
 119, 120, 576, 577, 578, 579, 580, 581, 582, 583, 584, 585, 586, 587, 588, 589
 590, 591, 592, 593, 594, 595, 596, 597, 598, 599, 600, 601, 602, 603, 604, 605
 606, 607, 608, 609, 610, 611, 612, 613, 614, 615, 616, 617, 618, 619, 620, 621
 622, 623, 624, 625, 626, 627, 628, 629, 630, 631, 632, 633, 634, 635, 636, 637
 638, 639, 640, 641, 642, 643, 644, 645, 646, 647, 648, 649, 650, 651, 652, 653
 654, 655, 656, 657, 658, 659, 660, 661, 662, 663, 664, 665, 666, 667, 668, 669
 670, 671, 672, 673, 674, 675, 676, 677, 678, 679, 680, 681, 682, 683, 684, 685
 686, 687, 688, 689, 690, 691, 692, 693, 694, 695, 696, 697, 698, 699, 700, 701
 702, 703, 704, 705, 706, 707, 708, 709, 710, 711, 712, 713, 714, 715, 716, 717
 718, 719, 720, 721, 722, 723, 724, 725, 726, 727, 728, 729, 730
*Elset, elset=XSymm, instance=TargetPlate-1
   24,   48,   72,   96,  120,  144,  168,  192,  216,  240,  264,  288,  312,  336,  360,  384
  408,  432,  456,  480,  504,  528,  552,  576,  600,  624,  648,  672,  696,  720,  744,  768
  792,  816,  840,  864,  888,  912,  936,  960,  984, 1008, 1032, 1056, 1080, 1104, 1128, 1152
 1176, 1200, 1224, 1248, 1272, 1296, 1320, 1344, 1368, 1392, 1416, 1440, 1464, 1488, 1512, 1536
 1560, 1584, 1608, 1632, 1656, 1680, 1704, 1728, 1752, 1776, 1800, 1824, 1848, 1872, 1896, 1920
 1944, 1968, 1992, 2016, 2040, 2064, 2088, 2112, 2136, 2160, 2184, 2208, 2232, 2256, 2280, 2304
 2328, 2352, 2376, 2400, 2424, 2448, 2472, 2496, 2520, 2544, 2568, 2592, 2616, 2640, 2664, 2688
 2712, 2736, 2760, 2784, 2808, 2832, 2856, 2880, 2904, 2928, 2952, 2976, 3000, 3024, 3048, 3072
 3096, 3120, 3144, 3168, 3648, 3660, 3672, 3684, 3696, 3708, 3720, 3732, 3744, 3756, 3768, 3780
 3792, 3804, 3816, 3828, 3840, 3852, 3864, 3876, 3888, 3900, 3912, 3924, 3936, 3948, 3960, 3972
 3984, 3996, 4008, 4020, 4032, 4044, 4056, 4068, 4080, 4092, 4104, 4105, 4106, 4107, 4108, 4109
 4110, 4111, 4112, 4113, 4114, 4115, 4116, 4249, 4250, 4251, 4252, 4253, 4254, 4255, 4256, 4257
 4258, 4259, 4260, 4393, 4394, 4395, 4396, 4397, 4398, 4399, 4400, 4401, 4402, 4403, 4404, 4548
 4560, 4572, 4584, 4596, 4608, 4620, 4632, 4644, 4656, 4668, 4680, 4692, 4704, 4716, 4728, 4740
 4752, 4764, 4776, 4788, 4800, 4812, 4824, 4836, 4848, 4860, 4872, 4884, 4896, 4908, 4920, 4932
 4944, 4956, 4968, 4980, 4992, 5004, 5473, 5474, 5475, 5476, 5477, 5478, 5479, 5480, 5481, 5482
 5483, 5484, 5485, 5486, 5487, 5488, 5489, 5490, 5491, 5492, 5493, 5494, 5495, 5496, 5497, 5498
 5499, 5500, 5501, 5502, 5503, 5504, 5505, 5506, 5507, 5508, 5905, 5929, 5953, 5977, 6001, 6025
 6049, 6073, 6097, 6121, 6145, 6169, 6193, 6217, 6241, 6265, 6289, 6313
*Elset, elset=XSymm, instance=SteelProjectile-1
 1877, 1878, 1879, 1880, 1881, 1882, 1883, 1884, 1885, 1886, 1887, 1888, 1889, 1890, 1891, 1892
 1893, 1894, 1895, 1896, 1897, 1898, 1899, 1900, 1901, 1902, 1903, 1904, 1905, 1906, 1907, 1908
 1909, 1910, 1911, 1912, 1913, 1914, 1915, 1916, 1917, 1918, 1919, 1920, 1921, 1922, 1923, 1924
 1925, 1926, 1927, 1928, 1929, 1930, 1931, 1932, 1933, 1934, 1935, 1936, 1937, 1938, 1939, 1940
 1941, 1942, 1943, 1944, 1945, 1946, 1947, 1948, 1949, 1950, 1951, 1952, 1953, 1954, 1955, 1956
 1957, 1958, 1959, 1960, 1961, 1962, 1963, 1964, 1965, 1966, 1967, 1968, 1969, 1970, 1971, 1972
 1973, 1974, 1975, 1976, 1977, 1978, 1979, 1980, 1981, 1982, 1983, 1984, 1985, 1986, 1987, 1988
 1989, 1990, 1991, 1992, 1993, 1994, 1995, 1996, 1997, 1998, 1999, 2000, 2001, 2002, 2003, 2004
 2005, 2006, 2007, 2008, 2009, 2010, 2011, 2012, 2013, 2014, 2015, 2016, 2017, 2018, 2019, 2020
 2021, 2022, 2023, 2024, 2025, 2026, 2027, 2028, 2029, 2030, 2031, 2032, 2033, 2034, 2130, 2131
 2132, 2133, 2134, 2135, 2136, 2137, 2138, 2139, 2140, 2141, 2142, 2143, 2144, 2145, 2146, 2147
 2148, 2169, 2170, 2171, 2172
*Nset, nset=YSymm, instance=TargetPlate-1
    1,    4,    8,   10,   11,   12,   13,   15,   84,   85,   86,   87,   88,   89,   90,   91
   92,   93,   94,   95,   96,   97,   98,   99,  100,  101,  102,  103,  104,  170,  171,  172
  173,  174,  175,  176,  177,  178,  179,  180,  181,  182,  183,  184,  185,  186,  187,  188
  189,  190,  191,  192,  193,  194,  195,  196,  197,  198,  199,  200,  211,  212,  213,  214
  215,  216,  217,  218,  219,  220,  221,  222,  223,  224,  225,  226,  227,  228,  229,  230
  231,  232,  233,  234,  259,  260,  261,  262,  263,  288,  289,  290,  291,  292,  293,  294
  295,  296,  297,  298,  299,  300,  301,  302,  303,  304,  305,  306,  307,  308,  309,  310
  311,  312,  313,  339,  340,  371,  372,  373,  374,  375, 1342, 1343, 1344, 1345, 1346, 1347
 1348, 1349, 1350, 1351, 1352, 1353, 1354, 1355, 1356, 1357, 1358, 1359, 1360, 1361, 1362, 1363
 1364, 1365, 1366, 1367, 1368, 1369, 1370, 1371, 1372, 1373, 1374, 1375, 1376, 1377, 1378, 1379
 1380, 1381, 1382, 1383, 1384, 1385, 1386, 1387, 1388, 1389, 1390, 1391, 1392, 1393, 1394, 1395
 1396, 1397, 1398, 1399, 1400, 1401, 1402, 1403, 1404, 1405, 1406, 1407, 1408, 1409, 1410, 1411
 1412, 1413, 1414, 1415, 1416, 1417, 1418, 1419, 1420, 1421, 1422, 1423, 1424, 1425, 1426, 1427
 1428, 1429, 1430, 1431, 1432, 1433, 1434, 1435, 1436, 1437, 1438, 1439, 1440, 1441, 1442, 1443
 1444, 1445, 1446, 2202, 2203, 2204, 2205, 2206, 2207, 2208, 2209, 2210, 2211, 2212, 2213, 2214
 2215, 2216, 2217, 2218, 2219, 2220, 2221, 2222, 2223, 2224, 2225, 2226, 2227, 2228, 2229, 2230
 2231, 2232, 2233, 2234, 2235, 2236, 2237, 2238, 2239, 2240, 2241, 2242, 2243, 2244, 2245, 2246
 2247, 2248, 2249, 2250, 2251, 2252, 2253, 2254, 2255, 2256, 2257, 2258, 2259, 2260, 2261, 2262
 2263, 2264, 2265, 2266, 2267, 2268, 2269, 2270, 2271, 2272, 2273, 2274, 2275, 2276, 2277, 2278
 2279, 2280, 2281, 2282, 2283, 2284, 2285, 2286, 2287, 2288, 2289, 2290, 2291, 2292, 2293, 2294
 2295, 2296, 2297, 2298, 2299, 2300, 2301, 2302, 2303, 2304, 2305, 2306, 2307, 2308, 2309, 2310
 2311, 2312, 2313, 2314, 2315, 2316, 2317, 2318, 2319, 2320, 2321, 2964, 2965, 2966, 2967, 2968
 2969, 2970, 2971, 2972, 2973
*Nset, nset=YSymm, instance=SteelProjectile-1
   2,   3,   4,   6,   7,   8,   9,  10,  11,  12,  13,  14,  15,  16,  17,  18
  19,  20,  21,  22,  23,  58,  59,  60,  61,  62,  63,  64,  65,  66,  67,  68
  69,  70,  71,  72,  73,  74,  75,  76,  77,  78,  79,  80,  81,  82,  83,  84
  85,  86, 276, 277, 278, 279, 280, 281, 282, 283, 284, 285, 286, 287, 288, 289
 290, 291, 292, 293, 294, 295, 296, 297, 298, 299, 300, 301, 302, 303, 304, 305
 306, 307, 308, 309, 310, 311, 312, 313, 314, 315, 316, 317, 318, 319, 320, 321
 322, 323, 324, 325, 326, 327, 328, 329, 330, 331, 332, 333, 334, 335, 336, 337
 338, 339, 340, 341, 342, 343, 344, 345, 346, 347, 348, 349, 350, 351, 352, 353
 354, 355, 356, 357, 358, 359, 360, 361, 362, 363, 364, 365, 366, 367, 368, 369
 370, 371, 372, 373, 374, 375, 376, 377, 378, 379, 380, 381, 382, 383, 384, 385
 386, 387, 388, 389, 390, 391, 392, 393, 394, 395, 396, 397, 398, 399, 400, 401
 402, 403, 404, 405, 406, 407, 408, 409, 410, 411, 412, 413, 414, 415, 416, 417
 418, 419, 420, 421, 422, 423, 424, 425, 426, 427, 428, 429, 430
*Elset, elset=YSymm, instance=TargetPlate-1
    1,   25,   49,   73,   97,  121,  145,  169,  193,  217,  241,  265,  289,  313,  337,  361
  385,  409,  433,  457,  481,  505,  529,  553,  577,  601,  625,  649,  673,  697,  721,  745
  769,  793,  817,  841,  865,  889,  913,  937,  961,  985, 1009, 1033, 1057, 1081, 1105, 1129
 1153, 1177, 1201, 1225, 1249, 1273, 1297, 1321, 1345, 1369, 1393, 1417, 1441, 1465, 1489, 1513
 1537, 1561, 1585, 1609, 1633, 1657, 1681, 1705, 1729, 1753, 1777, 1801, 1825, 1849, 1873, 1897
 1921, 1945, 1969, 1993, 2017, 2041, 2065, 2089, 2113, 2137, 2161, 2185, 2209, 2233, 2257, 2281
 2305, 2329, 2353, 2377, 2401, 2425, 2449, 2473, 2497, 2521, 2545, 2569, 2593, 2617, 2641, 2665
 2689, 2713, 2737, 2761, 2785, 2809, 2833, 2857, 2881, 2905, 2929, 2953, 2977, 3001, 3025, 3049
 3073, 3097, 3121, 3145, 3169, 3170, 3171, 3172, 3173, 3174, 3175, 3176, 3177, 3178, 3179, 3180
 3181, 3325, 3326, 3327, 3328, 3329, 3330, 3331, 3332, 3333, 3334, 3335, 3336, 3337, 3481, 3482
 3483, 3484, 3485, 3486, 3487, 3488, 3489, 3490, 3491, 3492, 3493, 4116, 4128, 4140, 4152, 4164
 4176, 4188, 4200, 4212, 4224, 4236, 4248, 4260, 4272, 4284, 4296, 4308, 4320, 4332, 4344, 4356
 4368, 4380, 4392, 4404, 4416, 4428, 4440, 4452, 4464, 4476, 4488, 4500, 4512, 4524, 4536, 5005
 5006, 5007, 5041, 5042, 5043, 5077, 5078, 5079, 5113, 5114, 5115, 5149, 5150, 5151, 5185, 5186
 5187, 5221, 5222, 5223, 5257, 5258, 5259, 5293, 5294, 5295, 5329, 5330, 5331, 5365, 5366, 5367
 5401, 5402, 5403, 5437, 5438, 5439, 5484, 5496, 5508, 5520, 5532, 5544, 5556, 5568, 5580, 5592
 5604, 5616, 5628, 5640, 5652, 5664, 5676, 5688, 5700, 5712, 5724, 5736, 5748, 5760, 5772, 5784
 5796, 5808, 5820, 5832, 5844, 5856, 5868, 5880, 5892, 5904, 5928, 5952, 5976, 6000, 6024, 6048
 6072, 6096, 6120, 6144, 6168, 6192, 6216, 6240, 6264, 6288, 6312, 6336
*Elset, elset=YSymm, instance=SteelProjectile-1
  791,  792,  793,  794,  795,  796,  797,  798,  799,  800,  801,  802,  803,  804,  805,  806
  807,  808,  809,  810,  811,  812,  813,  814,  815,  816,  817,  818,  819,  820,  821,  822
  823,  824,  825,  826,  827,  828,  829,  830,  831,  832,  833,  834,  835,  836,  837,  838
  839,  840,  841,  842,  843,  844,  845,  846,  847,  848,  849,  850,  851,  852,  853,  854
  855,  856,  857,  858,  859,  860,  861,  862,  863,  864,  865,  866,  867,  868,  869,  870
  871,  872,  873,  874,  875,  876,  877,  878,  879,  880,  881,  882,  883,  884,  885,  886
  887,  888,  889,  890,  891,  892,  893,  894,  895,  896,  897,  898,  899,  900,  901,  902
  903,  904,  905,  906,  907,  908,  909,  910,  911,  912,  913,  914,  915,  916,  917,  918
  919,  920,  921,  922,  923,  924,  925,  926,  927,  928,  929,  930,  931,  932,  933,  934
  935,  936,  937,  938,  939,  940,  941,  942,  943,  944,  945,  946,  947,  948, 1044, 1045
 1046, 1047, 1048, 1049, 1050, 1051, 1052, 1053, 1054, 1055, 1056, 1057, 1058, 1059, 1060, 1061
 1062, 1083, 1084, 1085, 1086
*Elset, elset=_ALLCONT_S1, internal, instance=TargetPlate-1, generate
    1,  6336,     1
*Elset, elset=_ALLCONT_S1, internal, instance=SteelProjectile-1, generate
    1,  2172,     1
*Elset, elset=_ALLCONT_S2, internal, instance=TargetPlate-1, generate
    1,  6336,     1
*Elset, elset=_ALLCONT_S2, internal, instance=SteelProjectile-1, generate
    1,  2172,     1
*Elset, elset=_ALLCONT_S3, internal, instance=TargetPlate-1, generate
    1,  6336,     1
*Elset, elset=_ALLCONT_S3, internal, instance=SteelProjectile-1, generate
    1,  2172,     1
*Elset, elset=_ALLCONT_S4, internal, instance=TargetPlate-1, generate
    1,  6336,     1
*Elset, elset=_ALLCONT_S4, internal, instance=SteelProjectile-1, generate
    1,  2172,     1
*Elset, elset=_ALLCONT_S5, internal, instance=TargetPlate-1, generate
    1,  6336,     1
*Elset, elset=_ALLCONT_S5, internal, instance=SteelProjectile-1, generate
    1,  2172,     1
*Elset, elset=_ALLCONT_S6, internal, instance=TargetPlate-1, generate
    1,  6336,     1
*Elset, elset=_ALLCONT_S6, internal, instance=SteelProjectile-1
    1,    2,    3,    4,    5,    6,    7,    8,    9,   10,   11,   12,   13,   14,   15,   16
   17,   18,   19,   20,   21,   22,   23,   24,   25,   26,   27,   28,   29,   30,   31,   32
   33,   34,   35,   36,   37,   38,   39,   40,   41,   42,   43,   44,   45,   46,   47,   48
   49,   50,   51,   52,   53,   54,   55,   56,   57,   58,   59,   60,   61,   62,   63,   64
   65,   66,   67,   68,   69,   70,   71,   72,   73,   74,   75,   76,   77,   78,   79,   80
   81,   82,   83,   84,   85,   86,   87,   88,   89,   90,   91,   92,   93,   94,   95,   96
   97,   98,   99,  100,  101,  102,  103,  104,  105,  106,  107,  108,  109,  110,  111,  112
  113,  114,  115,  116,  117,  118,  119,  120,  121,  122,  123,  124,  125,  126,  127,  128
  129,  130,  131,  132,  133,  134,  135,  136,  137,  138,  139,  140,  141,  142,  143,  144
  145,  146,  147,  148,  149,  150,  151,  152,  153,  154,  155,  156,  157,  158,  159,  160
  161,  162,  163,  164,  165,  166,  167,  168,  169,  170,  171,  172,  173,  174,  175,  176
  177,  178,  179,  180,  181,  182,  183,  184,  185,  186,  187,  188,  189,  190,  191,  192
  193,  194,  195,  196,  197,  198,  199,  200,  201,  202,  203,  204,  205,  206,  207,  208
  209,  210,  211,  212,  213,  214,  215,  216,  217,  218,  219,  220,  221,  222,  223,  224
  225,  226,  227,  228,  229,  230,  231,  232,  233,  234,  235,  236,  237,  238,  239,  240
  241,  242,  243,  244,  245,  246,  247,  248,  249,  250,  251,  252,  253,  254,  255,  256
  257,  258,  259,  260,  261,  262,  263,  264,  265,  266,  267,  268,  269,  270,  271,  272
  273,  274,  275,  276,  277,  278,  279,  280,  281,  282,  283,  284,  285,  286,  287,  288
  289,  290,  291,  292,  293,  294,  295,  296,  297,  298,  299,  300,  301,  302,  303,  304
  305,  306,  307,  308,  309,  310,  311,  312,  313,  314,  315,  316,  317,  318,  319,  320
** ... 99 like lines cut
*Surface, type=ELEMENT, name=ALLCONT
_ALLCONT_S1, S1
_ALLCONT_S2, S2
_ALLCONT_S4, S4
_ALLCONT_S6, S6
_ALLCONT_S3, S3
_ALLCONT_S5, S5
** Constraint: Embed-1
*Embedded Element, host elset=HOST
ALLFIBERS
*End Assembly
** 
** ELEMENT CONTROLS
** 
*Section Controls, name=EC-1, ELEMENT DELETION=YES, MAX DEGRADATION=0.05
1., 1., 1.
*Section Controls, name=EC-2, ELEMENT DELETION=YES
1., 1., 1.
** 
** MATERIALS
** 
*Material, name=Dyneema_Hazzard
*Damage Initiation, criterion=HASHIN
 1.25e+09, 1.25e+09, 1.25e+09, 1.25e+09,  1.8e+06,  1.8e+06
*Density
970.,
*Elastic, type=ENGINEERING CONSTANTS
 3.4257e+10, 3.4257e+10,   3.26e+09,      0.001,      0.013,      0.013,  1.738e+08,  5.478e+08
  5.478e+08,
*Material, name=Dyneema_Hazzard-Elastic
*Density
970.,
*Elastic, type=ENGINEERING CONSTANTS
 3.4257e+10, 3.4257e+10,   3.26e+09,      0.001,      0.013,      0.013,  1.738e+08,  5.478e+08
  5.478e+08,
*Material, name=FIBERS_Fail
*Damage Initiation, criterion=DUCTILE
 0.03,   0., 0.01
*Damage Evolution, type=ENERGY
1.,
*Density
981.,
*Elastic
 2e+08, 0.49
*Plastic
 2.5e+09,0.
*Rate Dependent
1., 0.08
*Material, name=Fibers
*Density
981.,
*Elastic
 1.3e+11, 0.49
** Properties from Matweb: AISI Type M50 Tool Steel
*Material, name=M50_ToolSteel
*Damage Initiation, criterion=DUCTILE
 0.198, 0.33333,  0.0002
*Damage Evolution, type=ENERGY
201000.,
*Density
7970.,
*Elastic
 2.034e+11, 0.3
*Plastic
 1.894e+09,0.
*Material, name=Matrix_Utomo
*Density
308.,
*Elastic, type=ENGINEERING CONSTANTS
 4.04e+10,  4.04e+10, 4.271e+09,      0.02,      0.06,      0.06,     9e+08,     4e+08
     4e+08,
*Material, name=Matrix_Utomo-Damage
*Damage Initiation, criterion=DUCTILE
 0.00028096, 0.333333,    0.001
*Density
308.,
*Elastic, type=ENGINEERING CONSTANTS
 4.04e+10,  4.04e+10, 4.271e+09,      0.02,      0.06,      0.06,     9e+08,     4e+08
     4e+08,
*Plastic
 1.2e+06,0.
** 
** INTERACTION PROPERTIES
** 
*Surface Interaction, name=IntProp-1
*Friction
 0.42,
** 
** BOUNDARY CONDITIONS
** 
** Name: Clamp Type: Symmetry/Antisymmetry/Encastre
*Boundary
Clamp, ENCASTRE
** Name: SymmX Type: Symmetry/Antisymmetry/Encastre
*Boundary
XSymm, XSYMM
** Name: Symmy Type: Symmetry/Antisymmetry/Encastre
*Boundary
YSymm, YSYMM
** 
** PREDEFINED FIELDS
** 
** Name: ProjectileVel   Type: Velocity
*Initial Conditions, type=VELOCITY
SteelProjectile-1.All, 1, 0.
SteelProjectile-1.All, 2, 0.
SteelProjectile-1.All, 3, -800.
** ----------------------------------------------------------------
** 
** STEP: Step-1
** 
*Step, name=Step-1, nlgeom=YES
*Dynamic, Explicit
, 0.00015
*Bulk Viscosity
0.06, 1.2
** 
** INTERACTIONS
** 
** Interaction: GeneralContact
*Contact, op=NEW
*Contact Inclusions
ALLCONT , 
*Contact Property Assignment
 ,  , IntProp-1
** 
** OUTPUT REQUESTS
** 
*Restart, write, number interval=1, time marks=NO
** 
** FIELD OUTPUT: F-Output-1
** 
*Output, field, number interval=200
*Node Output
A, U, V
*Element Output, directions=YES
CFAILURE, DMICRT, ER, LE, MISES, PE, PEEQ, S, SDEG, SEQUT, STATUS
*Contact Output
CDISP, CFORCE, CSTATUS, CSTRESS
** 
** HISTORY OUTPUT: H-Output-1
** 
*Output, history, variable=PRESELECT
*End Step
